
---------- Begin Simulation Statistics ----------
sim_seconds                                  4.875506                       # Number of seconds simulated
sim_ticks                                4875506100000                       # Number of ticks simulated
final_tick                               4875506100000                       # Number of ticks from beginning of simulation (restored from checkpoints and never reset)
sim_freq                                 1000000000000                       # Frequency of simulated ticks
host_inst_rate                                 280969                       # Simulator instruction rate (inst/s)
host_op_rate                                   483280                       # Simulator op (including micro ops) rate (op/s)
host_tick_rate                            28718220547                       # Simulator tick rate (ticks/s)
host_mem_usage                                 666116                       # Number of bytes of host memory used
host_seconds                                   169.77                       # Real time elapsed on the host
sim_insts                                    47700244                       # Number of instructions simulated
sim_ops                                      82046706                       # Number of ops (including micro ops) simulated
system.clk_domain.voltage_domain.voltage            1                       # Voltage in Volts
system.clk_domain.clock                          1000                       # Clock period in ticks
system.mem_ctrl.pwrStateResidencyTicks::UNDEFINED 4875506100000                       # Cumulative time (in ticks) in various power states
system.mem_ctrl.bytes_read::cpu.inst        506545384                       # Number of bytes read from this memory
system.mem_ctrl.bytes_read::cpu.data        111962384                       # Number of bytes read from this memory
system.mem_ctrl.bytes_read::total           618507768                       # Number of bytes read from this memory
system.mem_ctrl.bytes_inst_read::cpu.inst    506545384                       # Number of instructions bytes read from this memory
system.mem_ctrl.bytes_inst_read::total      506545384                       # Number of instructions bytes read from this memory
system.mem_ctrl.bytes_written::cpu.data      29377849                       # Number of bytes written to this memory
system.mem_ctrl.bytes_written::total         29377849                       # Number of bytes written to this memory
system.mem_ctrl.num_reads::cpu.inst          63318173                       # Number of read requests responded to by this memory
system.mem_ctrl.num_reads::cpu.data          23854000                       # Number of read requests responded to by this memory
system.mem_ctrl.num_reads::total             87172173                       # Number of read requests responded to by this memory
system.mem_ctrl.num_writes::cpu.data          7334621                       # Number of write requests responded to by this memory
system.mem_ctrl.num_writes::total             7334621                       # Number of write requests responded to by this memory
system.mem_ctrl.bw_read::cpu.inst           103895959                       # Total read bandwidth from this memory (bytes/s)
system.mem_ctrl.bw_read::cpu.data            22964259                       # Total read bandwidth from this memory (bytes/s)
system.mem_ctrl.bw_read::total              126860218                       # Total read bandwidth from this memory (bytes/s)
system.mem_ctrl.bw_inst_read::cpu.inst      103895959                       # Instruction read bandwidth from this memory (bytes/s)
system.mem_ctrl.bw_inst_read::total         103895959                       # Instruction read bandwidth from this memory (bytes/s)
system.mem_ctrl.bw_write::cpu.data            6025600                       # Write bandwidth from this memory (bytes/s)
system.mem_ctrl.bw_write::total               6025600                       # Write bandwidth from this memory (bytes/s)
system.mem_ctrl.bw_total::cpu.inst          103895959                       # Total bandwidth to/from this memory (bytes/s)
system.mem_ctrl.bw_total::cpu.data           28989859                       # Total bandwidth to/from this memory (bytes/s)
system.mem_ctrl.bw_total::total             132885818                       # Total bandwidth to/from this memory (bytes/s)
system.mem_ctrl.readReqs                     87172174                       # Number of read requests accepted
system.mem_ctrl.writeReqs                     7334621                       # Number of write requests accepted
system.mem_ctrl.readBursts                   87172174                       # Number of DRAM read bursts, including those serviced by the write queue
system.mem_ctrl.writeBursts                   7334621                       # Number of DRAM write bursts, including those merged in the write queue
system.mem_ctrl.bytesReadDRAM              4984698368                       # Total number of bytes read from DRAM
system.mem_ctrl.bytesReadWrQ                594320768                       # Total number of bytes read from write queue
system.mem_ctrl.bytesWritten                 83877120                       # Total number of bytes written to DRAM
system.mem_ctrl.bytesReadSys                618507776                       # Total read bytes from the system interface side
system.mem_ctrl.bytesWrittenSys              29377849                       # Total written bytes from the system interface side
system.mem_ctrl.servicedByWrQ                 9286262                       # Number of DRAM read bursts serviced by the write queue
system.mem_ctrl.mergedWrBursts                6024019                       # Number of DRAM write bursts merged with an existing one
system.mem_ctrl.neitherReadNorWriteReqs             0                       # Number of requests that are neither read nor write
system.mem_ctrl.perBankRdBursts::0           63200515                       # Per bank write bursts
system.mem_ctrl.perBankRdBursts::1            4189439                       # Per bank write bursts
system.mem_ctrl.perBankRdBursts::2              67006                       # Per bank write bursts
system.mem_ctrl.perBankRdBursts::3              65079                       # Per bank write bursts
system.mem_ctrl.perBankRdBursts::4              68364                       # Per bank write bursts
system.mem_ctrl.perBankRdBursts::5             140137                       # Per bank write bursts
system.mem_ctrl.perBankRdBursts::6            9532829                       # Per bank write bursts
system.mem_ctrl.perBankRdBursts::7             102622                       # Per bank write bursts
system.mem_ctrl.perBankRdBursts::8              64234                       # Per bank write bursts
system.mem_ctrl.perBankRdBursts::9              64159                       # Per bank write bursts
system.mem_ctrl.perBankRdBursts::10             66814                       # Per bank write bursts
system.mem_ctrl.perBankRdBursts::11             63345                       # Per bank write bursts
system.mem_ctrl.perBankRdBursts::12             61856                       # Per bank write bursts
system.mem_ctrl.perBankRdBursts::13             63758                       # Per bank write bursts
system.mem_ctrl.perBankRdBursts::14             63862                       # Per bank write bursts
system.mem_ctrl.perBankRdBursts::15             71893                       # Per bank write bursts
system.mem_ctrl.perBankWrBursts::0              78261                       # Per bank write bursts
system.mem_ctrl.perBankWrBursts::1              78413                       # Per bank write bursts
system.mem_ctrl.perBankWrBursts::2              78564                       # Per bank write bursts
system.mem_ctrl.perBankWrBursts::3              78594                       # Per bank write bursts
system.mem_ctrl.perBankWrBursts::4              78757                       # Per bank write bursts
system.mem_ctrl.perBankWrBursts::5              78925                       # Per bank write bursts
system.mem_ctrl.perBankWrBursts::6             160883                       # Per bank write bursts
system.mem_ctrl.perBankWrBursts::7              77043                       # Per bank write bursts
system.mem_ctrl.perBankWrBursts::8              74793                       # Per bank write bursts
system.mem_ctrl.perBankWrBursts::9              74938                       # Per bank write bursts
system.mem_ctrl.perBankWrBursts::10             74983                       # Per bank write bursts
system.mem_ctrl.perBankWrBursts::11             75017                       # Per bank write bursts
system.mem_ctrl.perBankWrBursts::12             74926                       # Per bank write bursts
system.mem_ctrl.perBankWrBursts::13             75009                       # Per bank write bursts
system.mem_ctrl.perBankWrBursts::14             75127                       # Per bank write bursts
system.mem_ctrl.perBankWrBursts::15             76347                       # Per bank write bursts
system.mem_ctrl.numRdRetry                          0                       # Number of times read queue was full causing retry
system.mem_ctrl.numWrRetry                          0                       # Number of times write queue was full causing retry
system.mem_ctrl.totGap                   4875506023000                       # Total gap between requests
system.mem_ctrl.readPktSize::0                   7393                       # Read request sizes (log2)
system.mem_ctrl.readPktSize::1                   2600                       # Read request sizes (log2)
system.mem_ctrl.readPktSize::2               19700564                       # Read request sizes (log2)
system.mem_ctrl.readPktSize::3               67461617                       # Read request sizes (log2)
system.mem_ctrl.readPktSize::4                      0                       # Read request sizes (log2)
system.mem_ctrl.readPktSize::5                      0                       # Read request sizes (log2)
system.mem_ctrl.readPktSize::6                      0                       # Read request sizes (log2)
system.mem_ctrl.writePktSize::0                   109                       # Write request sizes (log2)
system.mem_ctrl.writePktSize::1                    20                       # Write request sizes (log2)
system.mem_ctrl.writePktSize::2               7324559                       # Write request sizes (log2)
system.mem_ctrl.writePktSize::3                  9933                       # Write request sizes (log2)
system.mem_ctrl.writePktSize::4                     0                       # Write request sizes (log2)
system.mem_ctrl.writePktSize::5                     0                       # Write request sizes (log2)
system.mem_ctrl.writePktSize::6                     0                       # Write request sizes (log2)
system.mem_ctrl.rdQLenPdf::0                 77885903                       # What read queue length does an incoming req see
system.mem_ctrl.rdQLenPdf::1                        9                       # What read queue length does an incoming req see
system.mem_ctrl.rdQLenPdf::2                        0                       # What read queue length does an incoming req see
system.mem_ctrl.rdQLenPdf::3                        0                       # What read queue length does an incoming req see
system.mem_ctrl.rdQLenPdf::4                        0                       # What read queue length does an incoming req see
system.mem_ctrl.rdQLenPdf::5                        0                       # What read queue length does an incoming req see
system.mem_ctrl.rdQLenPdf::6                        0                       # What read queue length does an incoming req see
system.mem_ctrl.rdQLenPdf::7                        0                       # What read queue length does an incoming req see
system.mem_ctrl.rdQLenPdf::8                        0                       # What read queue length does an incoming req see
system.mem_ctrl.rdQLenPdf::9                        0                       # What read queue length does an incoming req see
system.mem_ctrl.rdQLenPdf::10                       0                       # What read queue length does an incoming req see
system.mem_ctrl.rdQLenPdf::11                       0                       # What read queue length does an incoming req see
system.mem_ctrl.rdQLenPdf::12                       0                       # What read queue length does an incoming req see
system.mem_ctrl.rdQLenPdf::13                       0                       # What read queue length does an incoming req see
system.mem_ctrl.rdQLenPdf::14                       0                       # What read queue length does an incoming req see
system.mem_ctrl.rdQLenPdf::15                       0                       # What read queue length does an incoming req see
system.mem_ctrl.rdQLenPdf::16                       0                       # What read queue length does an incoming req see
system.mem_ctrl.rdQLenPdf::17                       0                       # What read queue length does an incoming req see
system.mem_ctrl.rdQLenPdf::18                       0                       # What read queue length does an incoming req see
system.mem_ctrl.rdQLenPdf::19                       0                       # What read queue length does an incoming req see
system.mem_ctrl.rdQLenPdf::20                       0                       # What read queue length does an incoming req see
system.mem_ctrl.rdQLenPdf::21                       0                       # What read queue length does an incoming req see
system.mem_ctrl.rdQLenPdf::22                       0                       # What read queue length does an incoming req see
system.mem_ctrl.rdQLenPdf::23                       0                       # What read queue length does an incoming req see
system.mem_ctrl.rdQLenPdf::24                       0                       # What read queue length does an incoming req see
system.mem_ctrl.rdQLenPdf::25                       0                       # What read queue length does an incoming req see
system.mem_ctrl.rdQLenPdf::26                       0                       # What read queue length does an incoming req see
system.mem_ctrl.rdQLenPdf::27                       0                       # What read queue length does an incoming req see
system.mem_ctrl.rdQLenPdf::28                       0                       # What read queue length does an incoming req see
system.mem_ctrl.rdQLenPdf::29                       0                       # What read queue length does an incoming req see
system.mem_ctrl.rdQLenPdf::30                       0                       # What read queue length does an incoming req see
system.mem_ctrl.rdQLenPdf::31                       0                       # What read queue length does an incoming req see
system.mem_ctrl.wrQLenPdf::0                        1                       # What write queue length does an incoming req see
system.mem_ctrl.wrQLenPdf::1                        1                       # What write queue length does an incoming req see
system.mem_ctrl.wrQLenPdf::2                        1                       # What write queue length does an incoming req see
system.mem_ctrl.wrQLenPdf::3                        1                       # What write queue length does an incoming req see
system.mem_ctrl.wrQLenPdf::4                        1                       # What write queue length does an incoming req see
system.mem_ctrl.wrQLenPdf::5                        1                       # What write queue length does an incoming req see
system.mem_ctrl.wrQLenPdf::6                        1                       # What write queue length does an incoming req see
system.mem_ctrl.wrQLenPdf::7                        1                       # What write queue length does an incoming req see
system.mem_ctrl.wrQLenPdf::8                        1                       # What write queue length does an incoming req see
system.mem_ctrl.wrQLenPdf::9                        1                       # What write queue length does an incoming req see
system.mem_ctrl.wrQLenPdf::10                       1                       # What write queue length does an incoming req see
system.mem_ctrl.wrQLenPdf::11                       1                       # What write queue length does an incoming req see
system.mem_ctrl.wrQLenPdf::12                       1                       # What write queue length does an incoming req see
system.mem_ctrl.wrQLenPdf::13                       1                       # What write queue length does an incoming req see
system.mem_ctrl.wrQLenPdf::14                       1                       # What write queue length does an incoming req see
system.mem_ctrl.wrQLenPdf::15                       3                       # What write queue length does an incoming req see
system.mem_ctrl.wrQLenPdf::16                       3                       # What write queue length does an incoming req see
system.mem_ctrl.wrQLenPdf::17                   81912                       # What write queue length does an incoming req see
system.mem_ctrl.wrQLenPdf::18                   81912                       # What write queue length does an incoming req see
system.mem_ctrl.wrQLenPdf::19                   81912                       # What write queue length does an incoming req see
system.mem_ctrl.wrQLenPdf::20                   81912                       # What write queue length does an incoming req see
system.mem_ctrl.wrQLenPdf::21                   81912                       # What write queue length does an incoming req see
system.mem_ctrl.wrQLenPdf::22                   81911                       # What write queue length does an incoming req see
system.mem_ctrl.wrQLenPdf::23                   81911                       # What write queue length does an incoming req see
system.mem_ctrl.wrQLenPdf::24                   81911                       # What write queue length does an incoming req see
system.mem_ctrl.wrQLenPdf::25                   81911                       # What write queue length does an incoming req see
system.mem_ctrl.wrQLenPdf::26                   81911                       # What write queue length does an incoming req see
system.mem_ctrl.wrQLenPdf::27                   81911                       # What write queue length does an incoming req see
system.mem_ctrl.wrQLenPdf::28                   81911                       # What write queue length does an incoming req see
system.mem_ctrl.wrQLenPdf::29                   81911                       # What write queue length does an incoming req see
system.mem_ctrl.wrQLenPdf::30                   81911                       # What write queue length does an incoming req see
system.mem_ctrl.wrQLenPdf::31                   81911                       # What write queue length does an incoming req see
system.mem_ctrl.wrQLenPdf::32                   81911                       # What write queue length does an incoming req see
system.mem_ctrl.wrQLenPdf::33                       0                       # What write queue length does an incoming req see
system.mem_ctrl.wrQLenPdf::34                       0                       # What write queue length does an incoming req see
system.mem_ctrl.wrQLenPdf::35                       0                       # What write queue length does an incoming req see
system.mem_ctrl.wrQLenPdf::36                       0                       # What write queue length does an incoming req see
system.mem_ctrl.wrQLenPdf::37                       0                       # What write queue length does an incoming req see
system.mem_ctrl.wrQLenPdf::38                       0                       # What write queue length does an incoming req see
system.mem_ctrl.wrQLenPdf::39                       0                       # What write queue length does an incoming req see
system.mem_ctrl.wrQLenPdf::40                       0                       # What write queue length does an incoming req see
system.mem_ctrl.wrQLenPdf::41                       0                       # What write queue length does an incoming req see
system.mem_ctrl.wrQLenPdf::42                       0                       # What write queue length does an incoming req see
system.mem_ctrl.wrQLenPdf::43                       0                       # What write queue length does an incoming req see
system.mem_ctrl.wrQLenPdf::44                       0                       # What write queue length does an incoming req see
system.mem_ctrl.wrQLenPdf::45                       0                       # What write queue length does an incoming req see
system.mem_ctrl.wrQLenPdf::46                       0                       # What write queue length does an incoming req see
system.mem_ctrl.wrQLenPdf::47                       0                       # What write queue length does an incoming req see
system.mem_ctrl.wrQLenPdf::48                       0                       # What write queue length does an incoming req see
system.mem_ctrl.wrQLenPdf::49                       0                       # What write queue length does an incoming req see
system.mem_ctrl.wrQLenPdf::50                       0                       # What write queue length does an incoming req see
system.mem_ctrl.wrQLenPdf::51                       0                       # What write queue length does an incoming req see
system.mem_ctrl.wrQLenPdf::52                       0                       # What write queue length does an incoming req see
system.mem_ctrl.wrQLenPdf::53                       0                       # What write queue length does an incoming req see
system.mem_ctrl.wrQLenPdf::54                       0                       # What write queue length does an incoming req see
system.mem_ctrl.wrQLenPdf::55                       0                       # What write queue length does an incoming req see
system.mem_ctrl.wrQLenPdf::56                       0                       # What write queue length does an incoming req see
system.mem_ctrl.wrQLenPdf::57                       0                       # What write queue length does an incoming req see
system.mem_ctrl.wrQLenPdf::58                       0                       # What write queue length does an incoming req see
system.mem_ctrl.wrQLenPdf::59                       0                       # What write queue length does an incoming req see
system.mem_ctrl.wrQLenPdf::60                       0                       # What write queue length does an incoming req see
system.mem_ctrl.wrQLenPdf::61                       0                       # What write queue length does an incoming req see
system.mem_ctrl.wrQLenPdf::62                       0                       # What write queue length does an incoming req see
system.mem_ctrl.wrQLenPdf::63                       0                       # What write queue length does an incoming req see
system.mem_ctrl.bytesPerActivate::samples      6208566                       # Bytes accessed per row activation
system.mem_ctrl.bytesPerActivate::mean     816.383919                       # Bytes accessed per row activation
system.mem_ctrl.bytesPerActivate::gmean    710.367224                       # Bytes accessed per row activation
system.mem_ctrl.bytesPerActivate::stdev    299.983331                       # Bytes accessed per row activation
system.mem_ctrl.bytesPerActivate::0-127        290382      4.68%      4.68% # Bytes accessed per row activation
system.mem_ctrl.bytesPerActivate::128-255        51428      0.83%      5.51% # Bytes accessed per row activation
system.mem_ctrl.bytesPerActivate::256-383       108423      1.75%      7.25% # Bytes accessed per row activation
system.mem_ctrl.bytesPerActivate::384-511       849664     13.69%     20.94% # Bytes accessed per row activation
system.mem_ctrl.bytesPerActivate::512-639       445739      7.18%     28.12% # Bytes accessed per row activation
system.mem_ctrl.bytesPerActivate::640-767       198817      3.20%     31.32% # Bytes accessed per row activation
system.mem_ctrl.bytesPerActivate::768-895       230828      3.72%     35.04% # Bytes accessed per row activation
system.mem_ctrl.bytesPerActivate::896-1023       348735      5.62%     40.65% # Bytes accessed per row activation
system.mem_ctrl.bytesPerActivate::1024-1151      3684550     59.35%    100.00% # Bytes accessed per row activation
system.mem_ctrl.bytesPerActivate::total       6208566                       # Bytes accessed per row activation
system.mem_ctrl.rdPerTurnAround::samples        81911                       # Reads before turning the bus around for writes
system.mem_ctrl.rdPerTurnAround::mean      950.857809                       # Reads before turning the bus around for writes
system.mem_ctrl.rdPerTurnAround::stdev   74203.403321                       # Reads before turning the bus around for writes
system.mem_ctrl.rdPerTurnAround::0-1.04858e+06        81910    100.00%    100.00% # Reads before turning the bus around for writes
system.mem_ctrl.rdPerTurnAround::2.09715e+07-2.20201e+07            1      0.00%    100.00% # Reads before turning the bus around for writes
system.mem_ctrl.rdPerTurnAround::total          81911                       # Reads before turning the bus around for writes
system.mem_ctrl.wrPerTurnAround::samples        81911                       # Writes before turning the bus around for reads
system.mem_ctrl.wrPerTurnAround::mean       16.000049                       # Writes before turning the bus around for reads
system.mem_ctrl.wrPerTurnAround::gmean      16.000046                       # Writes before turning the bus around for reads
system.mem_ctrl.wrPerTurnAround::stdev       0.009883                       # Writes before turning the bus around for reads
system.mem_ctrl.wrPerTurnAround::16             81909    100.00%    100.00% # Writes before turning the bus around for reads
system.mem_ctrl.wrPerTurnAround::18                 2      0.00%    100.00% # Writes before turning the bus around for reads
system.mem_ctrl.wrPerTurnAround::total          81911                       # Writes before turning the bus around for reads
system.mem_ctrl.totQLat                  717836547500                       # Total ticks spent queuing
system.mem_ctrl.totMemAccLat             2178197397500                       # Total ticks spent from burst creation until serviced by the DRAM
system.mem_ctrl.totBusLat                389429560000                       # Total ticks spent in databus transfers
system.mem_ctrl.avgQLat                       9216.51                       # Average queueing delay per DRAM burst
system.mem_ctrl.avgBusLat                     5000.00                       # Average bus latency per DRAM burst
system.mem_ctrl.avgMemAccLat                 27966.51                       # Average memory access latency per DRAM burst
system.mem_ctrl.avgRdBW                       1022.40                       # Average DRAM read bandwidth in MiByte/s
system.mem_ctrl.avgWrBW                         17.20                       # Average achieved write bandwidth in MiByte/s
system.mem_ctrl.avgRdBWSys                     126.86                       # Average system read bandwidth in MiByte/s
system.mem_ctrl.avgWrBWSys                       6.03                       # Average system write bandwidth in MiByte/s
system.mem_ctrl.peakBW                       12800.00                       # Theoretical peak bandwidth in MiByte/s
system.mem_ctrl.busUtil                          8.12                       # Data bus utilization in percentage
system.mem_ctrl.busUtilRead                      7.99                       # Data bus utilization in percentage for reads
system.mem_ctrl.busUtilWrite                     0.13                       # Data bus utilization in percentage for writes
system.mem_ctrl.avgRdQLen                        1.00                       # Average read queue length when enqueuing
system.mem_ctrl.avgWrQLen                       25.24                       # Average write queue length when enqueuing
system.mem_ctrl.readRowHits                  71819101                       # Number of row buffer hits during reads
system.mem_ctrl.writeRowHits                  1168820                       # Number of row buffer hits during writes
system.mem_ctrl.readRowHitRate                  92.21                       # Row buffer hit rate for reads
system.mem_ctrl.writeRowHitRate                 89.18                       # Row buffer hit rate for writes
system.mem_ctrl.avgGap                       51588.95                       # Average gap between requests
system.mem_ctrl.pageHitRate                     92.16                       # Row buffer hit rate, read and write combined
system.mem_ctrl_0.actEnergy               43239754320                       # Energy for activate commands per rank (pJ)
system.mem_ctrl_0.preEnergy               22982463075                       # Energy for precharge commands per rank (pJ)
system.mem_ctrl_0.readEnergy             552393175740                       # Energy for read commands per rank (pJ)
system.mem_ctrl_0.writeEnergy              3703276800                       # Energy for write commands per rank (pJ)
system.mem_ctrl_0.refreshEnergy          384867899520.000061                       # Energy for refresh commands per rank (pJ)
system.mem_ctrl_0.actBackEnergy          1046812801020                       # Energy for active background per rank (pJ)
system.mem_ctrl_0.preBackEnergy            7423037760                       # Energy for precharge background per rank (pJ)
system.mem_ctrl_0.actPowerDownEnergy     1167218899920                       # Energy for active power-down per rank (pJ)
system.mem_ctrl_0.prePowerDownEnergy        313173120                       # Energy for precharge power-down per rank (pJ)
system.mem_ctrl_0.selfRefreshEnergy           8698560                       # Energy for self refresh per rank (pJ)
system.mem_ctrl_0.totalEnergy            3228963179835                       # Total energy per rank (pJ)
system.mem_ctrl_0.averagePower             662.282666                       # Core power per rank (mW)
system.mem_ctrl_0.totalIdleTime          2559232600500                       # Total Idle time Per DRAM Rank
system.mem_ctrl_0.memoryStateTime::IDLE    1946725250                       # Time in different power states
system.mem_ctrl_0.memoryStateTime::REF   162803776000                       # Time in different power states
system.mem_ctrl_0.memoryStateTime::SREF      27038500                       # Time in different power states
system.mem_ctrl_0.memoryStateTime::PRE_PDN    814514500                       # Time in different power states
system.mem_ctrl_0.memoryStateTime::ACT   2151522383000                       # Time in different power states
system.mem_ctrl_0.memoryStateTime::ACT_PDN 2558391662750                       # Time in different power states
system.mem_ctrl_1.actEnergy                1089442620                       # Energy for activate commands per rank (pJ)
system.mem_ctrl_1.preEnergy                 579044895                       # Energy for precharge commands per rank (pJ)
system.mem_ctrl_1.readEnergy               3712228800                       # Energy for read commands per rank (pJ)
system.mem_ctrl_1.writeEnergy              3137950800                       # Energy for write commands per rank (pJ)
system.mem_ctrl_1.refreshEnergy          177140477280.000031                       # Energy for refresh commands per rank (pJ)
system.mem_ctrl_1.actBackEnergy          187582048410                       # Energy for active background per rank (pJ)
system.mem_ctrl_1.preBackEnergy           11058551040                       # Energy for precharge background per rank (pJ)
system.mem_ctrl_1.actPowerDownEnergy     255819659400                       # Energy for active power-down per rank (pJ)
system.mem_ctrl_1.prePowerDownEnergy     248936214720                       # Energy for precharge power-down per rank (pJ)
system.mem_ctrl_1.selfRefreshEnergy      819543107205                       # Energy for self refresh per rank (pJ)
system.mem_ctrl_1.totalEnergy            1708598986170                       # Total energy per rank (pJ)
system.mem_ctrl_1.averagePower             350.445462                       # Core power per rank (mW)
system.mem_ctrl_1.totalIdleTime          4435331361000                       # Total Idle time Per DRAM Rank
system.mem_ctrl_1.memoryStateTime::IDLE   22634716250                       # Time in different power states
system.mem_ctrl_1.memoryStateTime::REF    75424658000                       # Time in different power states
system.mem_ctrl_1.memoryStateTime::SREF  3226061838500                       # Time in different power states
system.mem_ctrl_1.memoryStateTime::PRE_PDN 648269732750                       # Time in different power states
system.mem_ctrl_1.memoryStateTime::ACT   342115364750                       # Time in different power states
system.mem_ctrl_1.memoryStateTime::ACT_PDN 560999789750                       # Time in different power states
system.pwrStateResidencyTicks::UNDEFINED 4875506100000                       # Cumulative time (in ticks) in various power states
system.cpu.dtb.walker.pwrStateResidencyTicks::UNDEFINED 4875506100000                       # Cumulative time (in ticks) in various power states
system.cpu.dtb.rdAccesses                    23854000                       # TLB accesses on read requests
system.cpu.dtb.wrAccesses                     7334621                       # TLB accesses on write requests
system.cpu.dtb.rdMisses                          1229                       # TLB misses on read requests
system.cpu.dtb.wrMisses                        116843                       # TLB misses on write requests
system.cpu.apic_clk_domain.clock                16000                       # Clock period in ticks
system.cpu.interrupts.pwrStateResidencyTicks::UNDEFINED 4875506100000                       # Cumulative time (in ticks) in various power states
system.cpu.itb.walker.pwrStateResidencyTicks::UNDEFINED 4875506100000                       # Cumulative time (in ticks) in various power states
system.cpu.itb.rdAccesses                           0                       # TLB accesses on read requests
system.cpu.itb.wrAccesses                    63318174                       # TLB accesses on write requests
system.cpu.itb.rdMisses                             0                       # TLB misses on read requests
system.cpu.itb.wrMisses                            89                       # TLB misses on write requests
system.cpu.workload.numSyscalls                    33                       # Number of system calls
system.cpu.pwrStateResidencyTicks::ON    4875506100000                       # Cumulative time (in ticks) in various power states
system.cpu.numCycles                       4875506100                       # number of cpu cycles simulated
system.cpu.numWorkItemsStarted                      0                       # number of work items this cpu started
system.cpu.numWorkItemsCompleted                    0                       # number of work items this cpu completed
system.cpu.committedInsts                    47700244                       # Number of instructions committed
system.cpu.committedOps                      82046706                       # Number of ops (including micro ops) committed
system.cpu.num_int_alu_accesses              82043407                       # Number of integer alu accesses
system.cpu.num_fp_alu_accesses                   3447                       # Number of float alu accesses
system.cpu.num_vec_alu_accesses                     0                       # Number of vector alu accesses
system.cpu.num_func_calls                        1358                       # number of times a function call or return occured
system.cpu.num_conditional_control_insts      5151277                       # number of instructions that are conditional controls
system.cpu.num_int_insts                     82043407                       # number of integer instructions
system.cpu.num_fp_insts                          3447                       # number of float instructions
system.cpu.num_vec_insts                            0                       # number of vector instructions
system.cpu.num_int_register_reads           173517092                       # number of times the integer registers were read
system.cpu.num_int_register_writes           69557594                       # number of times the integer registers were written
system.cpu.num_fp_register_reads                 5525                       # number of times the floating registers were read
system.cpu.num_fp_register_writes                2660                       # number of times the floating registers were written
system.cpu.num_vec_register_reads                   0                       # number of times the vector registers were read
system.cpu.num_vec_register_writes                  0                       # number of times the vector registers were written
system.cpu.num_cc_register_reads             26790677                       # number of times the CC registers were read
system.cpu.num_cc_register_writes            31250784                       # number of times the CC registers were written
system.cpu.num_mem_refs                      31188612                       # number of memory refs
system.cpu.num_load_insts                    23853991                       # Number of load instructions
system.cpu.num_store_insts                    7334621                       # Number of store instructions
system.cpu.num_idle_cycles                          0                       # Number of idle cycles
system.cpu.num_busy_cycles                 4875506100                       # Number of busy cycles
system.cpu.not_idle_fraction                        1                       # Percentage of non-idle cycles
system.cpu.idle_fraction                            0                       # Percentage of idle cycles
system.cpu.Branches                           5154587                       # Number of branches fetched
system.cpu.op_class::No_OpClass                  1287      0.00%      0.00% # Class of executed instruction
system.cpu.op_class::IntAlu                  50852257     61.98%     61.98% # Class of executed instruction
system.cpu.op_class::IntMult                     1192      0.00%     61.98% # Class of executed instruction
system.cpu.op_class::IntDiv                      1131      0.00%     61.98% # Class of executed instruction
system.cpu.op_class::FloatAdd                    2227      0.00%     61.99% # Class of executed instruction
system.cpu.op_class::FloatCmp                       0      0.00%     61.99% # Class of executed instruction
system.cpu.op_class::FloatCvt                       0      0.00%     61.99% # Class of executed instruction
system.cpu.op_class::FloatMult                      0      0.00%     61.99% # Class of executed instruction
system.cpu.op_class::FloatMultAcc                   0      0.00%     61.99% # Class of executed instruction
system.cpu.op_class::FloatDiv                       0      0.00%     61.99% # Class of executed instruction
system.cpu.op_class::FloatMisc                      0      0.00%     61.99% # Class of executed instruction
system.cpu.op_class::FloatSqrt                      0      0.00%     61.99% # Class of executed instruction
system.cpu.op_class::SimdAdd                        0      0.00%     61.99% # Class of executed instruction
system.cpu.op_class::SimdAddAcc                     0      0.00%     61.99% # Class of executed instruction
system.cpu.op_class::SimdAlu                        0      0.00%     61.99% # Class of executed instruction
system.cpu.op_class::SimdCmp                        0      0.00%     61.99% # Class of executed instruction
system.cpu.op_class::SimdCvt                        0      0.00%     61.99% # Class of executed instruction
system.cpu.op_class::SimdMisc                       0      0.00%     61.99% # Class of executed instruction
system.cpu.op_class::SimdMult                       0      0.00%     61.99% # Class of executed instruction
system.cpu.op_class::SimdMultAcc                    0      0.00%     61.99% # Class of executed instruction
system.cpu.op_class::SimdShift                      0      0.00%     61.99% # Class of executed instruction
system.cpu.op_class::SimdShiftAcc                   0      0.00%     61.99% # Class of executed instruction
system.cpu.op_class::SimdSqrt                       0      0.00%     61.99% # Class of executed instruction
system.cpu.op_class::SimdFloatAdd                   0      0.00%     61.99% # Class of executed instruction
system.cpu.op_class::SimdFloatAlu                   0      0.00%     61.99% # Class of executed instruction
system.cpu.op_class::SimdFloatCmp                   0      0.00%     61.99% # Class of executed instruction
system.cpu.op_class::SimdFloatCvt                   0      0.00%     61.99% # Class of executed instruction
system.cpu.op_class::SimdFloatDiv                   0      0.00%     61.99% # Class of executed instruction
system.cpu.op_class::SimdFloatMisc                  0      0.00%     61.99% # Class of executed instruction
system.cpu.op_class::SimdFloatMult                  0      0.00%     61.99% # Class of executed instruction
system.cpu.op_class::SimdFloatMultAcc               0      0.00%     61.99% # Class of executed instruction
system.cpu.op_class::SimdFloatSqrt                  0      0.00%     61.99% # Class of executed instruction
system.cpu.op_class::MemRead                 23853209     29.07%     91.06% # Class of executed instruction
system.cpu.op_class::MemWrite                 7334237      8.94%    100.00% # Class of executed instruction
system.cpu.op_class::FloatMemRead                 782      0.00%    100.00% # Class of executed instruction
system.cpu.op_class::FloatMemWrite                384      0.00%    100.00% # Class of executed instruction
system.cpu.op_class::IprAccess                      0      0.00%    100.00% # Class of executed instruction
system.cpu.op_class::InstPrefetch                   0      0.00%    100.00% # Class of executed instruction
system.cpu.op_class::total                   82046706                       # Class of executed instruction
system.membus.snoop_filter.tot_requests             0                       # Total number of requests made to the snoop filter.
system.membus.snoop_filter.hit_single_requests            0                       # Number of requests hitting in the snoop filter with a single holder of the requested data.
system.membus.snoop_filter.hit_multi_requests            0                       # Number of requests hitting in the snoop filter with multiple (>1) holders of the requested data.
system.membus.snoop_filter.tot_snoops               0                       # Total number of snoops made to the snoop filter.
system.membus.snoop_filter.hit_single_snoops            0                       # Number of snoops hitting in the snoop filter with a single holder of the requested data.
system.membus.snoop_filter.hit_multi_snoops            0                       # Number of snoops hitting in the snoop filter with multiple (>1) holders of the requested data.
system.membus.pwrStateResidencyTicks::UNDEFINED 4875506100000                       # Cumulative time (in ticks) in various power states
system.membus.trans_dist::ReadReq            87172174                       # Transaction distribution
system.membus.trans_dist::ReadResp           87172173                       # Transaction distribution
system.membus.trans_dist::WriteReq            7334621                       # Transaction distribution
system.membus.trans_dist::WriteResp           7334621                       # Transaction distribution
system.membus.pkt_count_system.cpu.icache_port::system.mem_ctrl.port    126636347                       # Packet count per connected master and slave (bytes)
system.membus.pkt_count_system.cpu.icache_port::total    126636347                       # Packet count per connected master and slave (bytes)
system.membus.pkt_count_system.cpu.dcache_port::system.mem_ctrl.port     62377242                       # Packet count per connected master and slave (bytes)
system.membus.pkt_count_system.cpu.dcache_port::total     62377242                       # Packet count per connected master and slave (bytes)
system.membus.pkt_count::total              189013589                       # Packet count per connected master and slave (bytes)
system.membus.pkt_size_system.cpu.icache_port::system.mem_ctrl.port    506545384                       # Cumulative packet size per connected master and slave (bytes)
system.membus.pkt_size_system.cpu.icache_port::total    506545384                       # Cumulative packet size per connected master and slave (bytes)
system.membus.pkt_size_system.cpu.dcache_port::system.mem_ctrl.port    141340233                       # Cumulative packet size per connected master and slave (bytes)
system.membus.pkt_size_system.cpu.dcache_port::total    141340233                       # Cumulative packet size per connected master and slave (bytes)
system.membus.pkt_size::total               647885617                       # Cumulative packet size per connected master and slave (bytes)
system.membus.snoops                                0                       # Total snoops (count)
system.membus.snoopTraffic                          0                       # Total snoop traffic (bytes)
system.membus.snoop_fanout::samples          94506795                       # Request fanout histogram
system.membus.snoop_fanout::mean                    0                       # Request fanout histogram
system.membus.snoop_fanout::stdev                   0                       # Request fanout histogram
system.membus.snoop_fanout::underflows              0      0.00%      0.00% # Request fanout histogram
system.membus.snoop_fanout::0                94506795    100.00%    100.00% # Request fanout histogram
system.membus.snoop_fanout::1                       0      0.00%    100.00% # Request fanout histogram
system.membus.snoop_fanout::overflows               0      0.00%    100.00% # Request fanout histogram
system.membus.snoop_fanout::min_value               0                       # Request fanout histogram
system.membus.snoop_fanout::max_value               0                       # Request fanout histogram
system.membus.snoop_fanout::total            94506795                       # Request fanout histogram
system.membus.reqLayer2.occupancy        101841416000                       # Layer occupancy (ticks)
system.membus.reqLayer2.utilization               2.1                       # Layer utilization (%)
system.membus.respLayer0.occupancy       143443905000                       # Layer occupancy (ticks)
system.membus.respLayer0.utilization              2.9                       # Layer utilization (%)
system.membus.respLayer1.occupancy        59214658250                       # Layer occupancy (ticks)
system.membus.respLayer1.utilization              1.2                       # Layer utilization (%)

---------- End Simulation Statistics   ----------
