
---------- Begin Simulation Statistics ----------
sim_seconds                                  1.425749                       # Number of seconds simulated
sim_ticks                                1425748871000                       # Number of ticks simulated
final_tick                               1425748871000                       # Number of ticks from beginning of simulation (restored from checkpoints and never reset)
sim_freq                                 1000000000000                       # Frequency of simulated ticks
host_inst_rate                                 130747                       # Simulator instruction rate (inst/s)
host_op_rate                                   224891                       # Simulator op (including micro ops) rate (op/s)
host_tick_rate                             3907994711                       # Simulator tick rate (ticks/s)
host_mem_usage                                 668416                       # Number of bytes of host memory used
host_seconds                                   364.83                       # Real time elapsed on the host
sim_insts                                    47700244                       # Number of instructions simulated
sim_ops                                      82046706                       # Number of ops (including micro ops) simulated
system.clk_domain.voltage_domain.voltage            1                       # Voltage in Volts
system.clk_domain.clock                          1000                       # Clock period in ticks
system.mem_ctrl.pwrStateResidencyTicks::UNDEFINED 1425748871000                       # Cumulative time (in ticks) in various power states
system.mem_ctrl.bytes_read::cpu.inst       1171910592                       # Number of bytes read from this memory
system.mem_ctrl.bytes_read::cpu.data        124182573                       # Number of bytes read from this memory
system.mem_ctrl.bytes_read::total          1296093165                       # Number of bytes read from this memory
system.mem_ctrl.bytes_inst_read::cpu.inst   1171910592                       # Number of instructions bytes read from this memory
system.mem_ctrl.bytes_inst_read::total     1171910592                       # Number of instructions bytes read from this memory
system.mem_ctrl.bytes_written::cpu.data      29377849                       # Number of bytes written to this memory
system.mem_ctrl.bytes_written::total         29377849                       # Number of bytes written to this memory
system.mem_ctrl.num_reads::cpu.inst          18311103                       # Number of read requests responded to by this memory
system.mem_ctrl.num_reads::cpu.data          26903572                       # Number of read requests responded to by this memory
system.mem_ctrl.num_reads::total             45214675                       # Number of read requests responded to by this memory
system.mem_ctrl.num_writes::cpu.data          7334621                       # Number of write requests responded to by this memory
system.mem_ctrl.num_writes::total             7334621                       # Number of write requests responded to by this memory
system.mem_ctrl.bw_read::cpu.inst           821961438                       # Total read bandwidth from this memory (bytes/s)
system.mem_ctrl.bw_read::cpu.data            87099892                       # Total read bandwidth from this memory (bytes/s)
system.mem_ctrl.bw_read::total              909061330                       # Total read bandwidth from this memory (bytes/s)
system.mem_ctrl.bw_inst_read::cpu.inst      821961438                       # Instruction read bandwidth from this memory (bytes/s)
system.mem_ctrl.bw_inst_read::total         821961438                       # Instruction read bandwidth from this memory (bytes/s)
system.mem_ctrl.bw_write::cpu.data           20605206                       # Write bandwidth from this memory (bytes/s)
system.mem_ctrl.bw_write::total              20605206                       # Write bandwidth from this memory (bytes/s)
system.mem_ctrl.bw_total::cpu.inst          821961438                       # Total bandwidth to/from this memory (bytes/s)
system.mem_ctrl.bw_total::cpu.data          107705098                       # Total bandwidth to/from this memory (bytes/s)
system.mem_ctrl.bw_total::total             929666536                       # Total bandwidth to/from this memory (bytes/s)
system.mem_ctrl.readReqs                     45214676                       # Number of read requests accepted
system.mem_ctrl.writeReqs                     7334621                       # Number of write requests accepted
system.mem_ctrl.readBursts                   45214676                       # Number of DRAM read bursts, including those serviced by the write queue
system.mem_ctrl.writeBursts                   7334621                       # Number of DRAM write bursts, including those merged in the write queue
system.mem_ctrl.bytesReadDRAM              2298887296                       # Total number of bytes read from DRAM
system.mem_ctrl.bytesReadWrQ                594851968                       # Total number of bytes read from write queue
system.mem_ctrl.bytesWritten                 83047808                       # Total number of bytes written to DRAM
system.mem_ctrl.bytesReadSys               1296093229                       # Total read bytes from the system interface side
system.mem_ctrl.bytesWrittenSys              29377849                       # Total written bytes from the system interface side
system.mem_ctrl.servicedByWrQ                 9294562                       # Number of DRAM read bursts serviced by the write queue
system.mem_ctrl.mergedWrBursts                6036982                       # Number of DRAM write bursts merged with an existing one
system.mem_ctrl.neitherReadNorWriteReqs             0                       # Number of requests that are neither read nor write
system.mem_ctrl.perBankRdBursts::0           18324864                       # Per bank write bursts
system.mem_ctrl.perBankRdBursts::1            4188873                       # Per bank write bursts
system.mem_ctrl.perBankRdBursts::2              65235                       # Per bank write bursts
system.mem_ctrl.perBankRdBursts::3              64530                       # Per bank write bursts
system.mem_ctrl.perBankRdBursts::4              66680                       # Per bank write bursts
system.mem_ctrl.perBankRdBursts::5              93979                       # Per bank write bursts
system.mem_ctrl.perBankRdBursts::6           12528556                       # Per bank write bursts
system.mem_ctrl.perBankRdBursts::7              77748                       # Per bank write bursts
system.mem_ctrl.perBankRdBursts::8              63548                       # Per bank write bursts
system.mem_ctrl.perBankRdBursts::9              63418                       # Per bank write bursts
system.mem_ctrl.perBankRdBursts::10             64582                       # Per bank write bursts
system.mem_ctrl.perBankRdBursts::11             64004                       # Per bank write bursts
system.mem_ctrl.perBankRdBursts::12             61842                       # Per bank write bursts
system.mem_ctrl.perBankRdBursts::13             62435                       # Per bank write bursts
system.mem_ctrl.perBankRdBursts::14             62806                       # Per bank write bursts
system.mem_ctrl.perBankRdBursts::15             67014                       # Per bank write bursts
system.mem_ctrl.perBankWrBursts::0              77587                       # Per bank write bursts
system.mem_ctrl.perBankWrBursts::1              77753                       # Per bank write bursts
system.mem_ctrl.perBankWrBursts::2              78345                       # Per bank write bursts
system.mem_ctrl.perBankWrBursts::3              77985                       # Per bank write bursts
system.mem_ctrl.perBankWrBursts::4              78094                       # Per bank write bursts
system.mem_ctrl.perBankWrBursts::5              78256                       # Per bank write bursts
system.mem_ctrl.perBankWrBursts::6             151550                       # Per bank write bursts
system.mem_ctrl.perBankWrBursts::7              76876                       # Per bank write bursts
system.mem_ctrl.perBankWrBursts::8              74793                       # Per bank write bursts
system.mem_ctrl.perBankWrBursts::9              74947                       # Per bank write bursts
system.mem_ctrl.perBankWrBursts::10             74986                       # Per bank write bursts
system.mem_ctrl.perBankWrBursts::11             75024                       # Per bank write bursts
system.mem_ctrl.perBankWrBursts::12             74930                       # Per bank write bursts
system.mem_ctrl.perBankWrBursts::13             75014                       # Per bank write bursts
system.mem_ctrl.perBankWrBursts::14             75132                       # Per bank write bursts
system.mem_ctrl.perBankWrBursts::15             76350                       # Per bank write bursts
system.mem_ctrl.numRdRetry                          0                       # Number of times read queue was full causing retry
system.mem_ctrl.numWrRetry                          0                       # Number of times write queue was full causing retry
system.mem_ctrl.totGap                   1425748864000                       # Total gap between requests
system.mem_ctrl.readPktSize::0                   7599                       # Read request sizes (log2)
system.mem_ctrl.readPktSize::1                   2619                       # Read request sizes (log2)
system.mem_ctrl.readPktSize::2               22744270                       # Read request sizes (log2)
system.mem_ctrl.readPktSize::3                4149084                       # Read request sizes (log2)
system.mem_ctrl.readPktSize::4                      0                       # Read request sizes (log2)
system.mem_ctrl.readPktSize::5                      0                       # Read request sizes (log2)
system.mem_ctrl.readPktSize::6               18311104                       # Read request sizes (log2)
system.mem_ctrl.writePktSize::0                   109                       # Write request sizes (log2)
system.mem_ctrl.writePktSize::1                    20                       # Write request sizes (log2)
system.mem_ctrl.writePktSize::2               7324559                       # Write request sizes (log2)
system.mem_ctrl.writePktSize::3                  9933                       # Write request sizes (log2)
system.mem_ctrl.writePktSize::4                     0                       # Write request sizes (log2)
system.mem_ctrl.writePktSize::5                     0                       # Write request sizes (log2)
system.mem_ctrl.writePktSize::6                     0                       # Write request sizes (log2)
system.mem_ctrl.rdQLenPdf::0                 20947540                       # What read queue length does an incoming req see
system.mem_ctrl.rdQLenPdf::1                 14968131                       # What read queue length does an incoming req see
system.mem_ctrl.rdQLenPdf::2                     4443                       # What read queue length does an incoming req see
system.mem_ctrl.rdQLenPdf::3                        0                       # What read queue length does an incoming req see
system.mem_ctrl.rdQLenPdf::4                        0                       # What read queue length does an incoming req see
system.mem_ctrl.rdQLenPdf::5                        0                       # What read queue length does an incoming req see
system.mem_ctrl.rdQLenPdf::6                        0                       # What read queue length does an incoming req see
system.mem_ctrl.rdQLenPdf::7                        0                       # What read queue length does an incoming req see
system.mem_ctrl.rdQLenPdf::8                        0                       # What read queue length does an incoming req see
system.mem_ctrl.rdQLenPdf::9                        0                       # What read queue length does an incoming req see
system.mem_ctrl.rdQLenPdf::10                       0                       # What read queue length does an incoming req see
system.mem_ctrl.rdQLenPdf::11                       0                       # What read queue length does an incoming req see
system.mem_ctrl.rdQLenPdf::12                       0                       # What read queue length does an incoming req see
system.mem_ctrl.rdQLenPdf::13                       0                       # What read queue length does an incoming req see
system.mem_ctrl.rdQLenPdf::14                       0                       # What read queue length does an incoming req see
system.mem_ctrl.rdQLenPdf::15                       0                       # What read queue length does an incoming req see
system.mem_ctrl.rdQLenPdf::16                       0                       # What read queue length does an incoming req see
system.mem_ctrl.rdQLenPdf::17                       0                       # What read queue length does an incoming req see
system.mem_ctrl.rdQLenPdf::18                       0                       # What read queue length does an incoming req see
system.mem_ctrl.rdQLenPdf::19                       0                       # What read queue length does an incoming req see
system.mem_ctrl.rdQLenPdf::20                       0                       # What read queue length does an incoming req see
system.mem_ctrl.rdQLenPdf::21                       0                       # What read queue length does an incoming req see
system.mem_ctrl.rdQLenPdf::22                       0                       # What read queue length does an incoming req see
system.mem_ctrl.rdQLenPdf::23                       0                       # What read queue length does an incoming req see
system.mem_ctrl.rdQLenPdf::24                       0                       # What read queue length does an incoming req see
system.mem_ctrl.rdQLenPdf::25                       0                       # What read queue length does an incoming req see
system.mem_ctrl.rdQLenPdf::26                       0                       # What read queue length does an incoming req see
system.mem_ctrl.rdQLenPdf::27                       0                       # What read queue length does an incoming req see
system.mem_ctrl.rdQLenPdf::28                       0                       # What read queue length does an incoming req see
system.mem_ctrl.rdQLenPdf::29                       0                       # What read queue length does an incoming req see
system.mem_ctrl.rdQLenPdf::30                       0                       # What read queue length does an incoming req see
system.mem_ctrl.rdQLenPdf::31                       0                       # What read queue length does an incoming req see
system.mem_ctrl.wrQLenPdf::0                        1                       # What write queue length does an incoming req see
system.mem_ctrl.wrQLenPdf::1                        1                       # What write queue length does an incoming req see
system.mem_ctrl.wrQLenPdf::2                        1                       # What write queue length does an incoming req see
system.mem_ctrl.wrQLenPdf::3                        1                       # What write queue length does an incoming req see
system.mem_ctrl.wrQLenPdf::4                        1                       # What write queue length does an incoming req see
system.mem_ctrl.wrQLenPdf::5                        1                       # What write queue length does an incoming req see
system.mem_ctrl.wrQLenPdf::6                        1                       # What write queue length does an incoming req see
system.mem_ctrl.wrQLenPdf::7                        1                       # What write queue length does an incoming req see
system.mem_ctrl.wrQLenPdf::8                        1                       # What write queue length does an incoming req see
system.mem_ctrl.wrQLenPdf::9                        1                       # What write queue length does an incoming req see
system.mem_ctrl.wrQLenPdf::10                       1                       # What write queue length does an incoming req see
system.mem_ctrl.wrQLenPdf::11                       1                       # What write queue length does an incoming req see
system.mem_ctrl.wrQLenPdf::12                       1                       # What write queue length does an incoming req see
system.mem_ctrl.wrQLenPdf::13                       1                       # What write queue length does an incoming req see
system.mem_ctrl.wrQLenPdf::14                       1                       # What write queue length does an incoming req see
system.mem_ctrl.wrQLenPdf::15                      12                       # What write queue length does an incoming req see
system.mem_ctrl.wrQLenPdf::16                      12                       # What write queue length does an incoming req see
system.mem_ctrl.wrQLenPdf::17                   81093                       # What write queue length does an incoming req see
system.mem_ctrl.wrQLenPdf::18                   81099                       # What write queue length does an incoming req see
system.mem_ctrl.wrQLenPdf::19                   81099                       # What write queue length does an incoming req see
system.mem_ctrl.wrQLenPdf::20                   81101                       # What write queue length does an incoming req see
system.mem_ctrl.wrQLenPdf::21                   81102                       # What write queue length does an incoming req see
system.mem_ctrl.wrQLenPdf::22                   81100                       # What write queue length does an incoming req see
system.mem_ctrl.wrQLenPdf::23                   81100                       # What write queue length does an incoming req see
system.mem_ctrl.wrQLenPdf::24                   81101                       # What write queue length does an incoming req see
system.mem_ctrl.wrQLenPdf::25                   81100                       # What write queue length does an incoming req see
system.mem_ctrl.wrQLenPdf::26                   81100                       # What write queue length does an incoming req see
system.mem_ctrl.wrQLenPdf::27                   81103                       # What write queue length does an incoming req see
system.mem_ctrl.wrQLenPdf::28                   81101                       # What write queue length does an incoming req see
system.mem_ctrl.wrQLenPdf::29                   81101                       # What write queue length does an incoming req see
system.mem_ctrl.wrQLenPdf::30                   81100                       # What write queue length does an incoming req see
system.mem_ctrl.wrQLenPdf::31                   81100                       # What write queue length does an incoming req see
system.mem_ctrl.wrQLenPdf::32                   81100                       # What write queue length does an incoming req see
system.mem_ctrl.wrQLenPdf::33                       0                       # What write queue length does an incoming req see
system.mem_ctrl.wrQLenPdf::34                       0                       # What write queue length does an incoming req see
system.mem_ctrl.wrQLenPdf::35                       0                       # What write queue length does an incoming req see
system.mem_ctrl.wrQLenPdf::36                       0                       # What write queue length does an incoming req see
system.mem_ctrl.wrQLenPdf::37                       0                       # What write queue length does an incoming req see
system.mem_ctrl.wrQLenPdf::38                       0                       # What write queue length does an incoming req see
system.mem_ctrl.wrQLenPdf::39                       0                       # What write queue length does an incoming req see
system.mem_ctrl.wrQLenPdf::40                       0                       # What write queue length does an incoming req see
system.mem_ctrl.wrQLenPdf::41                       0                       # What write queue length does an incoming req see
system.mem_ctrl.wrQLenPdf::42                       0                       # What write queue length does an incoming req see
system.mem_ctrl.wrQLenPdf::43                       0                       # What write queue length does an incoming req see
system.mem_ctrl.wrQLenPdf::44                       0                       # What write queue length does an incoming req see
system.mem_ctrl.wrQLenPdf::45                       0                       # What write queue length does an incoming req see
system.mem_ctrl.wrQLenPdf::46                       0                       # What write queue length does an incoming req see
system.mem_ctrl.wrQLenPdf::47                       0                       # What write queue length does an incoming req see
system.mem_ctrl.wrQLenPdf::48                       0                       # What write queue length does an incoming req see
system.mem_ctrl.wrQLenPdf::49                       0                       # What write queue length does an incoming req see
system.mem_ctrl.wrQLenPdf::50                       0                       # What write queue length does an incoming req see
system.mem_ctrl.wrQLenPdf::51                       0                       # What write queue length does an incoming req see
system.mem_ctrl.wrQLenPdf::52                       0                       # What write queue length does an incoming req see
system.mem_ctrl.wrQLenPdf::53                       0                       # What write queue length does an incoming req see
system.mem_ctrl.wrQLenPdf::54                       0                       # What write queue length does an incoming req see
system.mem_ctrl.wrQLenPdf::55                       0                       # What write queue length does an incoming req see
system.mem_ctrl.wrQLenPdf::56                       0                       # What write queue length does an incoming req see
system.mem_ctrl.wrQLenPdf::57                       0                       # What write queue length does an incoming req see
system.mem_ctrl.wrQLenPdf::58                       0                       # What write queue length does an incoming req see
system.mem_ctrl.wrQLenPdf::59                       0                       # What write queue length does an incoming req see
system.mem_ctrl.wrQLenPdf::60                       0                       # What write queue length does an incoming req see
system.mem_ctrl.wrQLenPdf::61                       0                       # What write queue length does an incoming req see
system.mem_ctrl.wrQLenPdf::62                       0                       # What write queue length does an incoming req see
system.mem_ctrl.wrQLenPdf::63                       0                       # What write queue length does an incoming req see
system.mem_ctrl.bytesPerActivate::samples      2905924                       # Bytes accessed per row activation
system.mem_ctrl.bytesPerActivate::mean     819.681352                       # Bytes accessed per row activation
system.mem_ctrl.bytesPerActivate::gmean    658.220592                       # Bytes accessed per row activation
system.mem_ctrl.bytesPerActivate::stdev    336.777519                       # Bytes accessed per row activation
system.mem_ctrl.bytesPerActivate::0-127        283571      9.76%      9.76% # Bytes accessed per row activation
system.mem_ctrl.bytesPerActivate::128-255        57321      1.97%     11.73% # Bytes accessed per row activation
system.mem_ctrl.bytesPerActivate::256-383       127792      4.40%     16.13% # Bytes accessed per row activation
system.mem_ctrl.bytesPerActivate::384-511       120428      4.14%     20.27% # Bytes accessed per row activation
system.mem_ctrl.bytesPerActivate::512-639       112415      3.87%     24.14% # Bytes accessed per row activation
system.mem_ctrl.bytesPerActivate::640-767        70447      2.42%     26.57% # Bytes accessed per row activation
system.mem_ctrl.bytesPerActivate::768-895        33351      1.15%     27.71% # Bytes accessed per row activation
system.mem_ctrl.bytesPerActivate::896-1023       257279      8.85%     36.57% # Bytes accessed per row activation
system.mem_ctrl.bytesPerActivate::1024-1151      1843320     63.43%    100.00% # Bytes accessed per row activation
system.mem_ctrl.bytesPerActivate::total       2905924                       # Bytes accessed per row activation
system.mem_ctrl.rdPerTurnAround::samples        81100                       # Reads before turning the bus around for writes
system.mem_ctrl.rdPerTurnAround::mean      442.911159                       # Reads before turning the bus around for writes
system.mem_ctrl.rdPerTurnAround::gmean     190.493107                       # Reads before turning the bus around for writes
system.mem_ctrl.rdPerTurnAround::stdev   48334.646591                       # Reads before turning the bus around for writes
system.mem_ctrl.rdPerTurnAround::0-524287        81099    100.00%    100.00% # Reads before turning the bus around for writes
system.mem_ctrl.rdPerTurnAround::1.36315e+07-1.41558e+07            1      0.00%    100.00% # Reads before turning the bus around for writes
system.mem_ctrl.rdPerTurnAround::total          81100                       # Reads before turning the bus around for writes
system.mem_ctrl.wrPerTurnAround::samples        81100                       # Writes before turning the bus around for reads
system.mem_ctrl.wrPerTurnAround::mean       16.000271                       # Writes before turning the bus around for reads
system.mem_ctrl.wrPerTurnAround::gmean      16.000256                       # Writes before turning the bus around for reads
system.mem_ctrl.wrPerTurnAround::stdev       0.023291                       # Writes before turning the bus around for reads
system.mem_ctrl.wrPerTurnAround::16             81089     99.99%     99.99% # Writes before turning the bus around for reads
system.mem_ctrl.wrPerTurnAround::18                11      0.01%    100.00% # Writes before turning the bus around for reads
system.mem_ctrl.wrPerTurnAround::total          81100                       # Writes before turning the bus around for reads
system.mem_ctrl.totQLat                  341774459750                       # Total ticks spent queuing
system.mem_ctrl.totMemAccLat             1015276597250                       # Total ticks spent from burst creation until serviced by the DRAM
system.mem_ctrl.totBusLat                179600570000                       # Total ticks spent in databus transfers
system.mem_ctrl.avgQLat                       9514.85                       # Average queueing delay per DRAM burst
system.mem_ctrl.avgBusLat                     5000.00                       # Average bus latency per DRAM burst
system.mem_ctrl.avgMemAccLat                 28264.85                       # Average memory access latency per DRAM burst
system.mem_ctrl.avgRdBW                       1612.41                       # Average DRAM read bandwidth in MiByte/s
system.mem_ctrl.avgWrBW                         58.25                       # Average achieved write bandwidth in MiByte/s
system.mem_ctrl.avgRdBWSys                     909.06                       # Average system read bandwidth in MiByte/s
system.mem_ctrl.avgWrBWSys                      20.61                       # Average system write bandwidth in MiByte/s
system.mem_ctrl.peakBW                       12800.00                       # Theoretical peak bandwidth in MiByte/s
system.mem_ctrl.busUtil                         13.05                       # Data bus utilization in percentage
system.mem_ctrl.busUtilRead                     12.60                       # Data bus utilization in percentage for reads
system.mem_ctrl.busUtilWrite                     0.46                       # Data bus utilization in percentage for writes
system.mem_ctrl.avgRdQLen                        1.61                       # Average read queue length when enqueuing
system.mem_ctrl.avgWrQLen                       25.62                       # Average write queue length when enqueuing
system.mem_ctrl.readRowHits                  33151324                       # Number of row buffer hits during reads
system.mem_ctrl.writeRowHits                  1160480                       # Number of row buffer hits during writes
system.mem_ctrl.readRowHitRate                  92.29                       # Row buffer hit rate for reads
system.mem_ctrl.writeRowHitRate                 89.43                       # Row buffer hit rate for writes
system.mem_ctrl.avgGap                       27131.64                       # Average gap between requests
system.mem_ctrl.pageHitRate                     92.19                       # Row buffer hit rate, read and write combined
system.mem_ctrl_0.actEnergy               20057316720                       # Energy for activate commands per rank (pJ)
system.mem_ctrl_0.preEnergy               10660705275                       # Energy for precharge commands per rank (pJ)
system.mem_ctrl_0.readEnergy             252830720100                       # Energy for read commands per rank (pJ)
system.mem_ctrl_0.writeEnergy              3635448120                       # Energy for write commands per rank (pJ)
system.mem_ctrl_0.refreshEnergy          112547345040.000031                       # Energy for refresh commands per rank (pJ)
system.mem_ctrl_0.actBackEnergy          361601988210                       # Energy for active background per rank (pJ)
system.mem_ctrl_0.preBackEnergy            2614435680                       # Energy for precharge background per rank (pJ)
system.mem_ctrl_0.actPowerDownEnergy     284285154450                       # Energy for active power-down per rank (pJ)
system.mem_ctrl_0.prePowerDownEnergy        965225760                       # Energy for precharge power-down per rank (pJ)
system.mem_ctrl_0.selfRefreshEnergy           2943780                       # Energy for self refresh per rank (pJ)
system.mem_ctrl_0.totalEnergy            1049201283135                       # Total energy per rank (pJ)
system.mem_ctrl_0.averagePower             735.894872                       # Core power per rank (mW)
system.mem_ctrl_0.totalIdleTime          625931367250                       # Total Idle time Per DRAM Rank
system.mem_ctrl_0.memoryStateTime::IDLE     779053250                       # Time in different power states
system.mem_ctrl_0.memoryStateTime::REF    47608872000                       # Time in different power states
system.mem_ctrl_0.memoryStateTime::SREF       7663750                       # Time in different power states
system.mem_ctrl_0.memoryStateTime::PRE_PDN   2510873500                       # Time in different power states
system.mem_ctrl_0.memoryStateTime::ACT   751429298250                       # Time in different power states
system.mem_ctrl_0.memoryStateTime::ACT_PDN 623413110250                       # Time in different power states
system.mem_ctrl_1.actEnergy                 691037760                       # Energy for activate commands per rank (pJ)
system.mem_ctrl_1.preEnergy                 367276305                       # Energy for precharge commands per rank (pJ)
system.mem_ctrl_1.readEnergy               3638893860                       # Energy for read commands per rank (pJ)
system.mem_ctrl_1.writeEnergy              3138138720                       # Energy for write commands per rank (pJ)
system.mem_ctrl_1.refreshEnergy          81878652960.000015                       # Energy for refresh commands per rank (pJ)
system.mem_ctrl_1.actBackEnergy          100067384550                       # Energy for active background per rank (pJ)
system.mem_ctrl_1.preBackEnergy            4827101280                       # Energy for precharge background per rank (pJ)
system.mem_ctrl_1.actPowerDownEnergy     100444796940                       # Energy for active power-down per rank (pJ)
system.mem_ctrl_1.prePowerDownEnergy      83754061920                       # Energy for precharge power-down per rank (pJ)
system.mem_ctrl_1.selfRefreshEnergy      209752573005                       # Energy for self refresh per rank (pJ)
system.mem_ctrl_1.totalEnergy            590663155560                       # Total energy per rank (pJ)
system.mem_ctrl_1.averagePower             414.282744                       # Core power per rank (mW)
system.mem_ctrl_1.totalIdleTime          1189055450250                       # Total Idle time Per DRAM Rank
system.mem_ctrl_1.memoryStateTime::IDLE   14208059250                       # Time in different power states
system.mem_ctrl_1.memoryStateTime::REF    34937632000                       # Time in different power states
system.mem_ctrl_1.memoryStateTime::SREF  750672118250                       # Time in different power states
system.mem_ctrl_1.memoryStateTime::PRE_PDN 218109675250                       # Time in different power states
system.mem_ctrl_1.memoryStateTime::ACT   187547729500                       # Time in different power states
system.mem_ctrl_1.memoryStateTime::ACT_PDN 220273656750                       # Time in different power states
system.pwrStateResidencyTicks::UNDEFINED 1425748871000                       # Cumulative time (in ticks) in various power states
system.cpu.branchPred.lookups                      80                       # Number of BP lookups
system.cpu.branchPred.condPredicted                80                       # Number of conditional branches predicted
system.cpu.branchPred.condIncorrect                32                       # Number of conditional branches incorrect
system.cpu.branchPred.BTBLookups                   46                       # Number of BTB lookups
system.cpu.branchPred.BTBHits                       0                       # Number of BTB hits
system.cpu.branchPred.BTBCorrect                    0                       # Number of correct BTB predictions (this stat may not work properly.
system.cpu.branchPred.BTBHitPct              0.000000                       # BTB Hit Percentage
system.cpu.branchPred.usedRAS                       0                       # Number of times the RAS was used to get a target.
system.cpu.branchPred.RASInCorrect                  0                       # Number of incorrect RAS predictions.
system.cpu.branchPred.indirectLookups              46                       # Number of indirect predictor lookups.
system.cpu.branchPred.indirectHits                  0                       # Number of indirect target hits.
system.cpu.branchPred.indirectMisses               46                       # Number of indirect misses.
system.cpu.branchPredindirectMispredicted           17                       # Number of mispredicted indirect branches.
system.cpu.dtb.walker.pwrStateResidencyTicks::UNDEFINED 1425748871000                       # Cumulative time (in ticks) in various power states
system.cpu.dtb.rdAccesses                    26907748                       # TLB accesses on read requests
system.cpu.dtb.wrAccesses                     7334793                       # TLB accesses on write requests
system.cpu.dtb.rdMisses                          2852                       # TLB misses on read requests
system.cpu.dtb.wrMisses                        116850                       # TLB misses on write requests
system.cpu.apic_clk_domain.clock                16000                       # Clock period in ticks
system.cpu.interrupts.pwrStateResidencyTicks::UNDEFINED 1425748871000                       # Cumulative time (in ticks) in various power states
system.cpu.itb.walker.pwrStateResidencyTicks::UNDEFINED 1425748871000                       # Cumulative time (in ticks) in various power states
system.cpu.itb.rdAccesses                           0                       # TLB accesses on read requests
system.cpu.itb.wrAccesses                    18311104                       # TLB accesses on write requests
system.cpu.itb.rdMisses                             0                       # TLB misses on read requests
system.cpu.itb.wrMisses                            90                       # TLB misses on write requests
system.cpu.workload.numSyscalls                    33                       # Number of system calls
system.cpu.pwrStateResidencyTicks::ON    1425748871000                       # Cumulative time (in ticks) in various power states
system.cpu.numCycles                       1425748871                       # number of cpu cycles simulated
system.cpu.numWorkItemsStarted                      0                       # number of work items this cpu started
system.cpu.numWorkItemsCompleted                    0                       # number of work items this cpu completed
system.cpu.committedInsts                    47700244                       # Number of instructions committed
system.cpu.committedOps                      82046706                       # Number of ops (including micro ops) committed
system.cpu.discardedOps                      19115389                       # Number of ops (including micro ops) which were discarded before commit
system.cpu.numFetchSuspends                         0                       # Number of times Execute suspended instruction fetching
system.cpu.cpi                              29.889761                       # CPI: cycles per instruction
system.cpu.ipc                               0.033456                       # IPC: instructions per cycle
system.cpu.op_class_0::No_OpClass                1287      0.00%      0.00% # Class of committed instruction
system.cpu.op_class_0::IntAlu                50852257     61.98%     61.98% # Class of committed instruction
system.cpu.op_class_0::IntMult                   1192      0.00%     61.98% # Class of committed instruction
system.cpu.op_class_0::IntDiv                    1131      0.00%     61.98% # Class of committed instruction
system.cpu.op_class_0::FloatAdd                  2227      0.00%     61.99% # Class of committed instruction
system.cpu.op_class_0::FloatCmp                     0      0.00%     61.99% # Class of committed instruction
system.cpu.op_class_0::FloatCvt                     0      0.00%     61.99% # Class of committed instruction
system.cpu.op_class_0::FloatMult                    0      0.00%     61.99% # Class of committed instruction
system.cpu.op_class_0::FloatMultAcc                 0      0.00%     61.99% # Class of committed instruction
system.cpu.op_class_0::FloatDiv                     0      0.00%     61.99% # Class of committed instruction
system.cpu.op_class_0::FloatMisc                    0      0.00%     61.99% # Class of committed instruction
system.cpu.op_class_0::FloatSqrt                    0      0.00%     61.99% # Class of committed instruction
system.cpu.op_class_0::SimdAdd                      0      0.00%     61.99% # Class of committed instruction
system.cpu.op_class_0::SimdAddAcc                   0      0.00%     61.99% # Class of committed instruction
system.cpu.op_class_0::SimdAlu                      0      0.00%     61.99% # Class of committed instruction
system.cpu.op_class_0::SimdCmp                      0      0.00%     61.99% # Class of committed instruction
system.cpu.op_class_0::SimdCvt                      0      0.00%     61.99% # Class of committed instruction
system.cpu.op_class_0::SimdMisc                     0      0.00%     61.99% # Class of committed instruction
system.cpu.op_class_0::SimdMult                     0      0.00%     61.99% # Class of committed instruction
system.cpu.op_class_0::SimdMultAcc                  0      0.00%     61.99% # Class of committed instruction
system.cpu.op_class_0::SimdShift                    0      0.00%     61.99% # Class of committed instruction
system.cpu.op_class_0::SimdShiftAcc                 0      0.00%     61.99% # Class of committed instruction
system.cpu.op_class_0::SimdSqrt                     0      0.00%     61.99% # Class of committed instruction
system.cpu.op_class_0::SimdFloatAdd                 0      0.00%     61.99% # Class of committed instruction
system.cpu.op_class_0::SimdFloatAlu                 0      0.00%     61.99% # Class of committed instruction
system.cpu.op_class_0::SimdFloatCmp                 0      0.00%     61.99% # Class of committed instruction
system.cpu.op_class_0::SimdFloatCvt                 0      0.00%     61.99% # Class of committed instruction
system.cpu.op_class_0::SimdFloatDiv                 0      0.00%     61.99% # Class of committed instruction
system.cpu.op_class_0::SimdFloatMisc                0      0.00%     61.99% # Class of committed instruction
system.cpu.op_class_0::SimdFloatMult                0      0.00%     61.99% # Class of committed instruction
system.cpu.op_class_0::SimdFloatMultAcc             0      0.00%     61.99% # Class of committed instruction
system.cpu.op_class_0::SimdFloatSqrt                0      0.00%     61.99% # Class of committed instruction
system.cpu.op_class_0::MemRead               23853209     29.07%     91.06% # Class of committed instruction
system.cpu.op_class_0::MemWrite               7334237      8.94%    100.00% # Class of committed instruction
system.cpu.op_class_0::FloatMemRead               782      0.00%    100.00% # Class of committed instruction
system.cpu.op_class_0::FloatMemWrite              384      0.00%    100.00% # Class of committed instruction
system.cpu.op_class_0::IprAccess                    0      0.00%    100.00% # Class of committed instruction
system.cpu.op_class_0::InstPrefetch                 0      0.00%    100.00% # Class of committed instruction
system.cpu.op_class_0::total                 82046706                       # Class of committed instruction
system.cpu.tickCycles                       255620769                       # Number of cycles that the object actually ticked
system.cpu.idleCycles                      1170128102                       # Total number of cycles that the object has spent stopped
system.membus.snoop_filter.tot_requests             0                       # Total number of requests made to the snoop filter.
system.membus.snoop_filter.hit_single_requests            0                       # Number of requests hitting in the snoop filter with a single holder of the requested data.
system.membus.snoop_filter.hit_multi_requests            0                       # Number of requests hitting in the snoop filter with multiple (>1) holders of the requested data.
system.membus.snoop_filter.tot_snoops               0                       # Total number of snoops made to the snoop filter.
system.membus.snoop_filter.hit_single_snoops            0                       # Number of snoops hitting in the snoop filter with a single holder of the requested data.
system.membus.snoop_filter.hit_multi_snoops            0                       # Number of snoops hitting in the snoop filter with multiple (>1) holders of the requested data.
system.membus.pwrStateResidencyTicks::UNDEFINED 1425748871000                       # Cumulative time (in ticks) in various power states
system.membus.trans_dist::ReadReq            45214676                       # Transaction distribution
system.membus.trans_dist::ReadResp           45214675                       # Transaction distribution
system.membus.trans_dist::WriteReq            7334621                       # Transaction distribution
system.membus.trans_dist::WriteResp           7334621                       # Transaction distribution
system.membus.pkt_count_system.cpu.fetch1.icache_port::system.mem_ctrl.port     36622207                       # Packet count per connected master and slave (bytes)
system.membus.pkt_count_system.cpu.fetch1.icache_port::total     36622207                       # Packet count per connected master and slave (bytes)
system.membus.pkt_count_system.cpu.execute.dcache_port::system.mem_ctrl.port     68476386                       # Packet count per connected master and slave (bytes)
system.membus.pkt_count_system.cpu.execute.dcache_port::total     68476386                       # Packet count per connected master and slave (bytes)
system.membus.pkt_count::total              105098593                       # Packet count per connected master and slave (bytes)
system.membus.pkt_size_system.cpu.fetch1.icache_port::system.mem_ctrl.port   1171910592                       # Cumulative packet size per connected master and slave (bytes)
system.membus.pkt_size_system.cpu.fetch1.icache_port::total   1171910592                       # Cumulative packet size per connected master and slave (bytes)
system.membus.pkt_size_system.cpu.execute.dcache_port::system.mem_ctrl.port    153560422                       # Cumulative packet size per connected master and slave (bytes)
system.membus.pkt_size_system.cpu.execute.dcache_port::total    153560422                       # Cumulative packet size per connected master and slave (bytes)
system.membus.pkt_size::total              1325471014                       # Cumulative packet size per connected master and slave (bytes)
system.membus.snoops                                0                       # Total snoops (count)
system.membus.snoopTraffic                          0                       # Total snoop traffic (bytes)
system.membus.snoop_fanout::samples          52549297                       # Request fanout histogram
system.membus.snoop_fanout::mean                    0                       # Request fanout histogram
system.membus.snoop_fanout::stdev                   0                       # Request fanout histogram
system.membus.snoop_fanout::underflows              0      0.00%      0.00% # Request fanout histogram
system.membus.snoop_fanout::0                52549297    100.00%    100.00% # Request fanout histogram
system.membus.snoop_fanout::1                       0      0.00%    100.00% # Request fanout histogram
system.membus.snoop_fanout::overflows               0      0.00%    100.00% # Request fanout histogram
system.membus.snoop_fanout::min_value               0                       # Request fanout histogram
system.membus.snoop_fanout::max_value               0                       # Request fanout histogram
system.membus.snoop_fanout::total            52549297                       # Request fanout histogram
system.membus.reqLayer2.occupancy         59883918000                       # Layer occupancy (ticks)
system.membus.reqLayer2.utilization               4.2                       # Layer utilization (%)
system.membus.respLayer0.occupancy        96801940750                       # Layer occupancy (ticks)
system.membus.respLayer0.utilization              6.8                       # Layer utilization (%)
system.membus.respLayer1.occupancy        66176820150                       # Layer occupancy (ticks)
system.membus.respLayer1.utilization              4.6                       # Layer utilization (%)

---------- End Simulation Statistics   ----------
