
---------- Begin Simulation Statistics ----------
sim_seconds                                  1.246528                       # Number of seconds simulated
sim_ticks                                1246528153934                       # Number of ticks simulated
final_tick                               1246528153934                       # Number of ticks from beginning of simulation (restored from checkpoints and never reset)
sim_freq                                 1000000000000                       # Frequency of simulated ticks
host_inst_rate                                 131909                       # Simulator instruction rate (inst/s)
host_op_rate                                   226890                       # Simulator op (including micro ops) rate (op/s)
host_tick_rate                             3447118510                       # Simulator tick rate (ticks/s)
host_mem_usage                                 668416                       # Number of bytes of host memory used
host_seconds                                   361.61                       # Real time elapsed on the host
sim_insts                                    47700244                       # Number of instructions simulated
sim_ops                                      82046706                       # Number of ops (including micro ops) simulated
system.clk_domain.voltage_domain.voltage            1                       # Voltage in Volts
system.clk_domain.clock                           667                       # Clock period in ticks
system.mem_ctrl.pwrStateResidencyTicks::UNDEFINED 1246528153934                       # Cumulative time (in ticks) in various power states
system.mem_ctrl.bytes_read::cpu.inst       1171902208                       # Number of bytes read from this memory
system.mem_ctrl.bytes_read::cpu.data        124182781                       # Number of bytes read from this memory
system.mem_ctrl.bytes_read::total          1296084989                       # Number of bytes read from this memory
system.mem_ctrl.bytes_inst_read::cpu.inst   1171902208                       # Number of instructions bytes read from this memory
system.mem_ctrl.bytes_inst_read::total     1171902208                       # Number of instructions bytes read from this memory
system.mem_ctrl.bytes_written::cpu.data      29377849                       # Number of bytes written to this memory
system.mem_ctrl.bytes_written::total         29377849                       # Number of bytes written to this memory
system.mem_ctrl.num_reads::cpu.inst          18310972                       # Number of read requests responded to by this memory
system.mem_ctrl.num_reads::cpu.data          26903598                       # Number of read requests responded to by this memory
system.mem_ctrl.num_reads::total             45214570                       # Number of read requests responded to by this memory
system.mem_ctrl.num_writes::cpu.data          7334621                       # Number of write requests responded to by this memory
system.mem_ctrl.num_writes::total             7334621                       # Number of write requests responded to by this memory
system.mem_ctrl.bw_read::cpu.inst           940132964                       # Total read bandwidth from this memory (bytes/s)
system.mem_ctrl.bw_read::cpu.data            99622925                       # Total read bandwidth from this memory (bytes/s)
system.mem_ctrl.bw_read::total             1039755889                       # Total read bandwidth from this memory (bytes/s)
system.mem_ctrl.bw_inst_read::cpu.inst      940132964                       # Instruction read bandwidth from this memory (bytes/s)
system.mem_ctrl.bw_inst_read::total         940132964                       # Instruction read bandwidth from this memory (bytes/s)
system.mem_ctrl.bw_write::cpu.data           23567738                       # Write bandwidth from this memory (bytes/s)
system.mem_ctrl.bw_write::total              23567738                       # Write bandwidth from this memory (bytes/s)
system.mem_ctrl.bw_total::cpu.inst          940132964                       # Total bandwidth to/from this memory (bytes/s)
system.mem_ctrl.bw_total::cpu.data          123190663                       # Total bandwidth to/from this memory (bytes/s)
system.mem_ctrl.bw_total::total            1063323627                       # Total bandwidth to/from this memory (bytes/s)
system.mem_ctrl.readReqs                     45214571                       # Number of read requests accepted
system.mem_ctrl.writeReqs                     7334621                       # Number of write requests accepted
system.mem_ctrl.readBursts                   45214571                       # Number of DRAM read bursts, including those serviced by the write queue
system.mem_ctrl.writeBursts                   7334621                       # Number of DRAM write bursts, including those merged in the write queue
system.mem_ctrl.bytesReadDRAM              2298741312                       # Total number of bytes read from DRAM
system.mem_ctrl.bytesReadWrQ                594991232                       # Total number of bytes read from write queue
system.mem_ctrl.bytesWritten                 82914752                       # Total number of bytes written to DRAM
system.mem_ctrl.bytesReadSys               1296085053                       # Total read bytes from the system interface side
system.mem_ctrl.bytesWrittenSys              29377849                       # Total written bytes from the system interface side
system.mem_ctrl.servicedByWrQ                 9296738                       # Number of DRAM read bursts serviced by the write queue
system.mem_ctrl.mergedWrBursts                6039046                       # Number of DRAM write bursts merged with an existing one
system.mem_ctrl.neitherReadNorWriteReqs             0                       # Number of requests that are neither read nor write
system.mem_ctrl.perBankRdBursts::0           18324833                       # Per bank write bursts
system.mem_ctrl.perBankRdBursts::1            4188868                       # Per bank write bursts
system.mem_ctrl.perBankRdBursts::2              65234                       # Per bank write bursts
system.mem_ctrl.perBankRdBursts::3              64525                       # Per bank write bursts
system.mem_ctrl.perBankRdBursts::4              66676                       # Per bank write bursts
system.mem_ctrl.perBankRdBursts::5              93978                       # Per bank write bursts
system.mem_ctrl.perBankRdBursts::6           12526316                       # Per bank write bursts
system.mem_ctrl.perBankRdBursts::7              77760                       # Per bank write bursts
system.mem_ctrl.perBankRdBursts::8              63546                       # Per bank write bursts
system.mem_ctrl.perBankRdBursts::9              63417                       # Per bank write bursts
system.mem_ctrl.perBankRdBursts::10             64578                       # Per bank write bursts
system.mem_ctrl.perBankRdBursts::11             64008                       # Per bank write bursts
system.mem_ctrl.perBankRdBursts::12             61842                       # Per bank write bursts
system.mem_ctrl.perBankRdBursts::13             62435                       # Per bank write bursts
system.mem_ctrl.perBankRdBursts::14             62797                       # Per bank write bursts
system.mem_ctrl.perBankRdBursts::15             67020                       # Per bank write bursts
system.mem_ctrl.perBankWrBursts::0              77585                       # Per bank write bursts
system.mem_ctrl.perBankWrBursts::1              77739                       # Per bank write bursts
system.mem_ctrl.perBankWrBursts::2              78271                       # Per bank write bursts
system.mem_ctrl.perBankWrBursts::3              77946                       # Per bank write bursts
system.mem_ctrl.perBankWrBursts::4              78070                       # Per bank write bursts
system.mem_ctrl.perBankWrBursts::5              78233                       # Per bank write bursts
system.mem_ctrl.perBankWrBursts::6             149712                       # Per bank write bursts
system.mem_ctrl.perBankWrBursts::7              76803                       # Per bank write bursts
system.mem_ctrl.perBankWrBursts::8              74793                       # Per bank write bursts
system.mem_ctrl.perBankWrBursts::9              74945                       # Per bank write bursts
system.mem_ctrl.perBankWrBursts::10             74996                       # Per bank write bursts
system.mem_ctrl.perBankWrBursts::11             75024                       # Per bank write bursts
system.mem_ctrl.perBankWrBursts::12             74931                       # Per bank write bursts
system.mem_ctrl.perBankWrBursts::13             75010                       # Per bank write bursts
system.mem_ctrl.perBankWrBursts::14             75129                       # Per bank write bursts
system.mem_ctrl.perBankWrBursts::15             76356                       # Per bank write bursts
system.mem_ctrl.numRdRetry                          0                       # Number of times read queue was full causing retry
system.mem_ctrl.numWrRetry                          0                       # Number of times write queue was full causing retry
system.mem_ctrl.totGap                   1246528149265                       # Total gap between requests
system.mem_ctrl.readPktSize::0                   7599                       # Read request sizes (log2)
system.mem_ctrl.readPktSize::1                   2619                       # Read request sizes (log2)
system.mem_ctrl.readPktSize::2               22744270                       # Read request sizes (log2)
system.mem_ctrl.readPktSize::3                4149110                       # Read request sizes (log2)
system.mem_ctrl.readPktSize::4                      0                       # Read request sizes (log2)
system.mem_ctrl.readPktSize::5                      0                       # Read request sizes (log2)
system.mem_ctrl.readPktSize::6               18310973                       # Read request sizes (log2)
system.mem_ctrl.writePktSize::0                   109                       # Write request sizes (log2)
system.mem_ctrl.writePktSize::1                    20                       # Write request sizes (log2)
system.mem_ctrl.writePktSize::2               7324559                       # Write request sizes (log2)
system.mem_ctrl.writePktSize::3                  9933                       # Write request sizes (log2)
system.mem_ctrl.writePktSize::4                     0                       # Write request sizes (log2)
system.mem_ctrl.writePktSize::5                     0                       # Write request sizes (log2)
system.mem_ctrl.writePktSize::6                     0                       # Write request sizes (log2)
system.mem_ctrl.rdQLenPdf::0                 20741635                       # What read queue length does an incoming req see
system.mem_ctrl.rdQLenPdf::1                 15171718                       # What read queue length does an incoming req see
system.mem_ctrl.rdQLenPdf::2                     4480                       # What read queue length does an incoming req see
system.mem_ctrl.rdQLenPdf::3                        0                       # What read queue length does an incoming req see
system.mem_ctrl.rdQLenPdf::4                        0                       # What read queue length does an incoming req see
system.mem_ctrl.rdQLenPdf::5                        0                       # What read queue length does an incoming req see
system.mem_ctrl.rdQLenPdf::6                        0                       # What read queue length does an incoming req see
system.mem_ctrl.rdQLenPdf::7                        0                       # What read queue length does an incoming req see
system.mem_ctrl.rdQLenPdf::8                        0                       # What read queue length does an incoming req see
system.mem_ctrl.rdQLenPdf::9                        0                       # What read queue length does an incoming req see
system.mem_ctrl.rdQLenPdf::10                       0                       # What read queue length does an incoming req see
system.mem_ctrl.rdQLenPdf::11                       0                       # What read queue length does an incoming req see
system.mem_ctrl.rdQLenPdf::12                       0                       # What read queue length does an incoming req see
system.mem_ctrl.rdQLenPdf::13                       0                       # What read queue length does an incoming req see
system.mem_ctrl.rdQLenPdf::14                       0                       # What read queue length does an incoming req see
system.mem_ctrl.rdQLenPdf::15                       0                       # What read queue length does an incoming req see
system.mem_ctrl.rdQLenPdf::16                       0                       # What read queue length does an incoming req see
system.mem_ctrl.rdQLenPdf::17                       0                       # What read queue length does an incoming req see
system.mem_ctrl.rdQLenPdf::18                       0                       # What read queue length does an incoming req see
system.mem_ctrl.rdQLenPdf::19                       0                       # What read queue length does an incoming req see
system.mem_ctrl.rdQLenPdf::20                       0                       # What read queue length does an incoming req see
system.mem_ctrl.rdQLenPdf::21                       0                       # What read queue length does an incoming req see
system.mem_ctrl.rdQLenPdf::22                       0                       # What read queue length does an incoming req see
system.mem_ctrl.rdQLenPdf::23                       0                       # What read queue length does an incoming req see
system.mem_ctrl.rdQLenPdf::24                       0                       # What read queue length does an incoming req see
system.mem_ctrl.rdQLenPdf::25                       0                       # What read queue length does an incoming req see
system.mem_ctrl.rdQLenPdf::26                       0                       # What read queue length does an incoming req see
system.mem_ctrl.rdQLenPdf::27                       0                       # What read queue length does an incoming req see
system.mem_ctrl.rdQLenPdf::28                       0                       # What read queue length does an incoming req see
system.mem_ctrl.rdQLenPdf::29                       0                       # What read queue length does an incoming req see
system.mem_ctrl.rdQLenPdf::30                       0                       # What read queue length does an incoming req see
system.mem_ctrl.rdQLenPdf::31                       0                       # What read queue length does an incoming req see
system.mem_ctrl.wrQLenPdf::0                        1                       # What write queue length does an incoming req see
system.mem_ctrl.wrQLenPdf::1                        1                       # What write queue length does an incoming req see
system.mem_ctrl.wrQLenPdf::2                        1                       # What write queue length does an incoming req see
system.mem_ctrl.wrQLenPdf::3                        1                       # What write queue length does an incoming req see
system.mem_ctrl.wrQLenPdf::4                        1                       # What write queue length does an incoming req see
system.mem_ctrl.wrQLenPdf::5                        1                       # What write queue length does an incoming req see
system.mem_ctrl.wrQLenPdf::6                        1                       # What write queue length does an incoming req see
system.mem_ctrl.wrQLenPdf::7                        1                       # What write queue length does an incoming req see
system.mem_ctrl.wrQLenPdf::8                        1                       # What write queue length does an incoming req see
system.mem_ctrl.wrQLenPdf::9                        1                       # What write queue length does an incoming req see
system.mem_ctrl.wrQLenPdf::10                       1                       # What write queue length does an incoming req see
system.mem_ctrl.wrQLenPdf::11                       1                       # What write queue length does an incoming req see
system.mem_ctrl.wrQLenPdf::12                       1                       # What write queue length does an incoming req see
system.mem_ctrl.wrQLenPdf::13                       1                       # What write queue length does an incoming req see
system.mem_ctrl.wrQLenPdf::14                       1                       # What write queue length does an incoming req see
system.mem_ctrl.wrQLenPdf::15                     199                       # What write queue length does an incoming req see
system.mem_ctrl.wrQLenPdf::16                     225                       # What write queue length does an incoming req see
system.mem_ctrl.wrQLenPdf::17                   80938                       # What write queue length does an incoming req see
system.mem_ctrl.wrQLenPdf::18                   80944                       # What write queue length does an incoming req see
system.mem_ctrl.wrQLenPdf::19                   80946                       # What write queue length does an incoming req see
system.mem_ctrl.wrQLenPdf::20                   80946                       # What write queue length does an incoming req see
system.mem_ctrl.wrQLenPdf::21                   80946                       # What write queue length does an incoming req see
system.mem_ctrl.wrQLenPdf::22                   80947                       # What write queue length does an incoming req see
system.mem_ctrl.wrQLenPdf::23                   80946                       # What write queue length does an incoming req see
system.mem_ctrl.wrQLenPdf::24                   80949                       # What write queue length does an incoming req see
system.mem_ctrl.wrQLenPdf::25                   80946                       # What write queue length does an incoming req see
system.mem_ctrl.wrQLenPdf::26                   80946                       # What write queue length does an incoming req see
system.mem_ctrl.wrQLenPdf::27                   80948                       # What write queue length does an incoming req see
system.mem_ctrl.wrQLenPdf::28                   80949                       # What write queue length does an incoming req see
system.mem_ctrl.wrQLenPdf::29                   80948                       # What write queue length does an incoming req see
system.mem_ctrl.wrQLenPdf::30                   80946                       # What write queue length does an incoming req see
system.mem_ctrl.wrQLenPdf::31                   80946                       # What write queue length does an incoming req see
system.mem_ctrl.wrQLenPdf::32                   80945                       # What write queue length does an incoming req see
system.mem_ctrl.wrQLenPdf::33                       0                       # What write queue length does an incoming req see
system.mem_ctrl.wrQLenPdf::34                       0                       # What write queue length does an incoming req see
system.mem_ctrl.wrQLenPdf::35                       0                       # What write queue length does an incoming req see
system.mem_ctrl.wrQLenPdf::36                       0                       # What write queue length does an incoming req see
system.mem_ctrl.wrQLenPdf::37                       0                       # What write queue length does an incoming req see
system.mem_ctrl.wrQLenPdf::38                       0                       # What write queue length does an incoming req see
system.mem_ctrl.wrQLenPdf::39                       0                       # What write queue length does an incoming req see
system.mem_ctrl.wrQLenPdf::40                       0                       # What write queue length does an incoming req see
system.mem_ctrl.wrQLenPdf::41                       0                       # What write queue length does an incoming req see
system.mem_ctrl.wrQLenPdf::42                       0                       # What write queue length does an incoming req see
system.mem_ctrl.wrQLenPdf::43                       0                       # What write queue length does an incoming req see
system.mem_ctrl.wrQLenPdf::44                       0                       # What write queue length does an incoming req see
system.mem_ctrl.wrQLenPdf::45                       0                       # What write queue length does an incoming req see
system.mem_ctrl.wrQLenPdf::46                       0                       # What write queue length does an incoming req see
system.mem_ctrl.wrQLenPdf::47                       0                       # What write queue length does an incoming req see
system.mem_ctrl.wrQLenPdf::48                       0                       # What write queue length does an incoming req see
system.mem_ctrl.wrQLenPdf::49                       0                       # What write queue length does an incoming req see
system.mem_ctrl.wrQLenPdf::50                       0                       # What write queue length does an incoming req see
system.mem_ctrl.wrQLenPdf::51                       0                       # What write queue length does an incoming req see
system.mem_ctrl.wrQLenPdf::52                       0                       # What write queue length does an incoming req see
system.mem_ctrl.wrQLenPdf::53                       0                       # What write queue length does an incoming req see
system.mem_ctrl.wrQLenPdf::54                       0                       # What write queue length does an incoming req see
system.mem_ctrl.wrQLenPdf::55                       0                       # What write queue length does an incoming req see
system.mem_ctrl.wrQLenPdf::56                       0                       # What write queue length does an incoming req see
system.mem_ctrl.wrQLenPdf::57                       0                       # What write queue length does an incoming req see
system.mem_ctrl.wrQLenPdf::58                       0                       # What write queue length does an incoming req see
system.mem_ctrl.wrQLenPdf::59                       0                       # What write queue length does an incoming req see
system.mem_ctrl.wrQLenPdf::60                       0                       # What write queue length does an incoming req see
system.mem_ctrl.wrQLenPdf::61                       0                       # What write queue length does an incoming req see
system.mem_ctrl.wrQLenPdf::62                       0                       # What write queue length does an incoming req see
system.mem_ctrl.wrQLenPdf::63                       0                       # What write queue length does an incoming req see
system.mem_ctrl.bytesPerActivate::samples      3022055                       # Bytes accessed per row activation
system.mem_ctrl.bytesPerActivate::mean     788.090679                       # Bytes accessed per row activation
system.mem_ctrl.bytesPerActivate::gmean    603.188450                       # Bytes accessed per row activation
system.mem_ctrl.bytesPerActivate::stdev    364.182433                       # Bytes accessed per row activation
system.mem_ctrl.bytesPerActivate::0-127        356569     11.80%     11.80% # Bytes accessed per row activation
system.mem_ctrl.bytesPerActivate::128-255        76914      2.55%     14.34% # Bytes accessed per row activation
system.mem_ctrl.bytesPerActivate::256-383       213303      7.06%     21.40% # Bytes accessed per row activation
system.mem_ctrl.bytesPerActivate::384-511       106186      3.51%     24.92% # Bytes accessed per row activation
system.mem_ctrl.bytesPerActivate::512-639        68856      2.28%     27.19% # Bytes accessed per row activation
system.mem_ctrl.bytesPerActivate::640-767        67416      2.23%     29.43% # Bytes accessed per row activation
system.mem_ctrl.bytesPerActivate::768-895        77153      2.55%     31.98% # Bytes accessed per row activation
system.mem_ctrl.bytesPerActivate::896-1023        97534      3.23%     35.21% # Bytes accessed per row activation
system.mem_ctrl.bytesPerActivate::1024-1151      1958124     64.79%    100.00% # Bytes accessed per row activation
system.mem_ctrl.bytesPerActivate::total       3022055                       # Bytes accessed per row activation
system.mem_ctrl.rdPerTurnAround::samples        80945                       # Reads before turning the bus around for writes
system.mem_ctrl.rdPerTurnAround::mean      443.724072                       # Reads before turning the bus around for writes
system.mem_ctrl.rdPerTurnAround::gmean     190.908968                       # Reads before turning the bus around for writes
system.mem_ctrl.rdPerTurnAround::stdev   48380.913977                       # Reads before turning the bus around for writes
system.mem_ctrl.rdPerTurnAround::0-524287        80944    100.00%    100.00% # Reads before turning the bus around for writes
system.mem_ctrl.rdPerTurnAround::1.36315e+07-1.41558e+07            1      0.00%    100.00% # Reads before turning the bus around for writes
system.mem_ctrl.rdPerTurnAround::total          80945                       # Reads before turning the bus around for writes
system.mem_ctrl.wrPerTurnAround::samples        80945                       # Writes before turning the bus around for reads
system.mem_ctrl.wrPerTurnAround::mean       16.005226                       # Writes before turning the bus around for reads
system.mem_ctrl.wrPerTurnAround::gmean      16.004933                       # Writes before turning the bus around for reads
system.mem_ctrl.wrPerTurnAround::stdev       0.100576                       # Writes before turning the bus around for reads
system.mem_ctrl.wrPerTurnAround::16             80721     99.72%     99.72% # Writes before turning the bus around for reads
system.mem_ctrl.wrPerTurnAround::17                25      0.03%     99.75% # Writes before turning the bus around for reads
system.mem_ctrl.wrPerTurnAround::18               199      0.25%    100.00% # Writes before turning the bus around for reads
system.mem_ctrl.wrPerTurnAround::total          80945                       # Writes before turning the bus around for reads
system.mem_ctrl.totQLat                  321508026101                       # Total ticks spent queuing
system.mem_ctrl.totMemAccLat             926436169487                       # Total ticks spent from burst creation until serviced by the DRAM
system.mem_ctrl.totBusLat                134763709416                       # Total ticks spent in databus transfers
system.mem_ctrl.avgQLat                       8951.21                       # Average queueing delay per DRAM burst
system.mem_ctrl.avgBusLat                     3752.00                       # Average bus latency per DRAM burst
system.mem_ctrl.avgMemAccLat                 25793.21                       # Average memory access latency per DRAM burst
system.mem_ctrl.avgRdBW                       1844.12                       # Average DRAM read bandwidth in MiByte/s
system.mem_ctrl.avgWrBW                         66.52                       # Average achieved write bandwidth in MiByte/s
system.mem_ctrl.avgRdBWSys                    1039.76                       # Average system read bandwidth in MiByte/s
system.mem_ctrl.avgWrBWSys                      23.57                       # Average system write bandwidth in MiByte/s
system.mem_ctrl.peakBW                       17057.00                       # Theoretical peak bandwidth in MiByte/s
system.mem_ctrl.busUtil                         11.20                       # Data bus utilization in percentage
system.mem_ctrl.busUtilRead                     10.81                       # Data bus utilization in percentage for reads
system.mem_ctrl.busUtilWrite                     0.39                       # Data bus utilization in percentage for writes
system.mem_ctrl.avgRdQLen                        1.64                       # Average read queue length when enqueuing
system.mem_ctrl.avgWrQLen                       27.84                       # Average write queue length when enqueuing
system.mem_ctrl.readRowHits                  33033777                       # Number of row buffer hits during reads
system.mem_ctrl.writeRowHits                  1157537                       # Number of row buffer hits during writes
system.mem_ctrl.readRowHitRate                  91.97                       # Row buffer hit rate for reads
system.mem_ctrl.writeRowHitRate                 89.35                       # Row buffer hit rate for writes
system.mem_ctrl.avgGap                       23721.17                       # Average gap between requests
system.mem_ctrl.pageHitRate                     91.88                       # Row buffer hit rate, read and write combined
system.mem_ctrl_0.actEnergy              30537461904.768002                       # Energy for activate commands per rank (pJ)
system.mem_ctrl_0.preEnergy              15072962390.639997                       # Energy for precharge commands per rank (pJ)
system.mem_ctrl_0.readEnergy             234350096944.320007                       # Energy for read commands per rank (pJ)
system.mem_ctrl_0.writeEnergy            3532698616.608000                       # Energy for write commands per rank (pJ)
system.mem_ctrl_0.refreshEnergy          103188945968.639984                       # Energy for refresh commands per rank (pJ)
system.mem_ctrl_0.actBackEnergy          369284320352.640015                       # Energy for active background per rank (pJ)
system.mem_ctrl_0.preBackEnergy          2796155525.520000                       # Energy for precharge background per rank (pJ)
system.mem_ctrl_0.actPowerDownEnergy     284261867580.768005                       # Energy for active power-down per rank (pJ)
system.mem_ctrl_0.prePowerDownEnergy     1261316619.864000                       # Energy for precharge power-down per rank (pJ)
system.mem_ctrl_0.selfRefreshEnergy      3377655.456000                       # Energy for self refresh per rank (pJ)
system.mem_ctrl_0.totalEnergy            1044289203559.223999                       # Total energy per rank (pJ)
system.mem_ctrl_0.averagePower             837.758217                       # Core power per rank (mW)
system.mem_ctrl_0.totalIdleTime          540826054321                       # Total Idle time Per DRAM Rank
system.mem_ctrl_0.memoryStateTime::IDLE    1005278214                       # Time in different power states
system.mem_ctrl_0.memoryStateTime::REF    41620818000                       # Time in different power states
system.mem_ctrl_0.memoryStateTime::SREF       9222622                       # Time in different power states
system.mem_ctrl_0.memoryStateTime::PRE_PDN   2444293831                       # Time in different power states
system.mem_ctrl_0.memoryStateTime::ACT   663075752771                       # Time in different power states
system.mem_ctrl_0.memoryStateTime::ACT_PDN 538372788496                       # Time in different power states
system.mem_ctrl_1.actEnergy              1301822855.424000                       # Energy for activate commands per rank (pJ)
system.mem_ctrl_1.preEnergy              642545608.320000                       # Energy for precharge commands per rank (pJ)
system.mem_ctrl_1.readEnergy             3373079846.976000                       # Energy for read commands per rank (pJ)
system.mem_ctrl_1.writeEnergy            3058651051.007999                       # Energy for write commands per rank (pJ)
system.mem_ctrl_1.refreshEnergy          62887371187.871994                       # Energy for refresh commands per rank (pJ)
system.mem_ctrl_1.actBackEnergy          111515706995.615982                       # Energy for active background per rank (pJ)
system.mem_ctrl_1.preBackEnergy          3864960113.280000                       # Energy for precharge background per rank (pJ)
system.mem_ctrl_1.actPowerDownEnergy     103758530094.912003                       # Energy for active power-down per rank (pJ)
system.mem_ctrl_1.prePowerDownEnergy     105826355087.040009                       # Energy for precharge power-down per rank (pJ)
system.mem_ctrl_1.selfRefreshEnergy      161100054819.647980                       # Energy for self refresh per rank (pJ)
system.mem_ctrl_1.totalEnergy            557342262398.208008                       # Total energy per rank (pJ)
system.mem_ctrl_1.averagePower             447.115662                       # Core power per rank (mW)
system.mem_ctrl_1.totalIdleTime          1026593691693                       # Total Idle time Per DRAM Rank
system.mem_ctrl_1.memoryStateTime::IDLE    6214586977                       # Time in different power states
system.mem_ctrl_1.memoryStateTime::REF    25480438000                       # Time in different power states
system.mem_ctrl_1.memoryStateTime::SREF  624991649444                       # Time in different power states
system.mem_ctrl_1.memoryStateTime::PRE_PDN 205089735239                       # Time in different power states
system.mem_ctrl_1.memoryStateTime::ACT   188239437264                       # Time in different power states
system.mem_ctrl_1.memoryStateTime::ACT_PDN 196512307010                       # Time in different power states
system.pwrStateResidencyTicks::UNDEFINED 1246528153934                       # Cumulative time (in ticks) in various power states
system.cpu.branchPred.lookups                      82                       # Number of BP lookups
system.cpu.branchPred.condPredicted                82                       # Number of conditional branches predicted
system.cpu.branchPred.condIncorrect                32                       # Number of conditional branches incorrect
system.cpu.branchPred.BTBLookups                   48                       # Number of BTB lookups
system.cpu.branchPred.BTBHits                       0                       # Number of BTB hits
system.cpu.branchPred.BTBCorrect                    0                       # Number of correct BTB predictions (this stat may not work properly.
system.cpu.branchPred.BTBHitPct              0.000000                       # BTB Hit Percentage
system.cpu.branchPred.usedRAS                       0                       # Number of times the RAS was used to get a target.
system.cpu.branchPred.RASInCorrect                  0                       # Number of incorrect RAS predictions.
system.cpu.branchPred.indirectLookups              48                       # Number of indirect predictor lookups.
system.cpu.branchPred.indirectHits                  0                       # Number of indirect target hits.
system.cpu.branchPred.indirectMisses               48                       # Number of indirect misses.
system.cpu.branchPredindirectMispredicted           17                       # Number of mispredicted indirect branches.
system.cpu.dtb.walker.pwrStateResidencyTicks::UNDEFINED 1246528153934                       # Cumulative time (in ticks) in various power states
system.cpu.dtb.rdAccesses                    26907750                       # TLB accesses on read requests
system.cpu.dtb.wrAccesses                     7334793                       # TLB accesses on write requests
system.cpu.dtb.rdMisses                          2852                       # TLB misses on read requests
system.cpu.dtb.wrMisses                        116850                       # TLB misses on write requests
system.cpu.apic_clk_domain.clock                10672                       # Clock period in ticks
system.cpu.interrupts.pwrStateResidencyTicks::UNDEFINED 1246528153934                       # Cumulative time (in ticks) in various power states
system.cpu.itb.walker.pwrStateResidencyTicks::UNDEFINED 1246528153934                       # Cumulative time (in ticks) in various power states
system.cpu.itb.rdAccesses                           0                       # TLB accesses on read requests
system.cpu.itb.wrAccesses                    18310973                       # TLB accesses on write requests
system.cpu.itb.rdMisses                             0                       # TLB misses on read requests
system.cpu.itb.wrMisses                            90                       # TLB misses on write requests
system.cpu.workload.numSyscalls                    33                       # Number of system calls
system.cpu.pwrStateResidencyTicks::ON    1246528153934                       # Cumulative time (in ticks) in various power states
system.cpu.numCycles                       1868857802                       # number of cpu cycles simulated
system.cpu.numWorkItemsStarted                      0                       # number of work items this cpu started
system.cpu.numWorkItemsCompleted                    0                       # number of work items this cpu completed
system.cpu.committedInsts                    47700244                       # Number of instructions committed
system.cpu.committedOps                      82046706                       # Number of ops (including micro ops) committed
system.cpu.discardedOps                      19101595                       # Number of ops (including micro ops) which were discarded before commit
system.cpu.numFetchSuspends                         0                       # Number of times Execute suspended instruction fetching
system.cpu.cpi                              39.179208                       # CPI: cycles per instruction
system.cpu.ipc                               0.025524                       # IPC: instructions per cycle
system.cpu.op_class_0::No_OpClass                1287      0.00%      0.00% # Class of committed instruction
system.cpu.op_class_0::IntAlu                50852257     61.98%     61.98% # Class of committed instruction
system.cpu.op_class_0::IntMult                   1192      0.00%     61.98% # Class of committed instruction
system.cpu.op_class_0::IntDiv                    1131      0.00%     61.98% # Class of committed instruction
system.cpu.op_class_0::FloatAdd                  2227      0.00%     61.99% # Class of committed instruction
system.cpu.op_class_0::FloatCmp                     0      0.00%     61.99% # Class of committed instruction
system.cpu.op_class_0::FloatCvt                     0      0.00%     61.99% # Class of committed instruction
system.cpu.op_class_0::FloatMult                    0      0.00%     61.99% # Class of committed instruction
system.cpu.op_class_0::FloatMultAcc                 0      0.00%     61.99% # Class of committed instruction
system.cpu.op_class_0::FloatDiv                     0      0.00%     61.99% # Class of committed instruction
system.cpu.op_class_0::FloatMisc                    0      0.00%     61.99% # Class of committed instruction
system.cpu.op_class_0::FloatSqrt                    0      0.00%     61.99% # Class of committed instruction
system.cpu.op_class_0::SimdAdd                      0      0.00%     61.99% # Class of committed instruction
system.cpu.op_class_0::SimdAddAcc                   0      0.00%     61.99% # Class of committed instruction
system.cpu.op_class_0::SimdAlu                      0      0.00%     61.99% # Class of committed instruction
system.cpu.op_class_0::SimdCmp                      0      0.00%     61.99% # Class of committed instruction
system.cpu.op_class_0::SimdCvt                      0      0.00%     61.99% # Class of committed instruction
system.cpu.op_class_0::SimdMisc                     0      0.00%     61.99% # Class of committed instruction
system.cpu.op_class_0::SimdMult                     0      0.00%     61.99% # Class of committed instruction
system.cpu.op_class_0::SimdMultAcc                  0      0.00%     61.99% # Class of committed instruction
system.cpu.op_class_0::SimdShift                    0      0.00%     61.99% # Class of committed instruction
system.cpu.op_class_0::SimdShiftAcc                 0      0.00%     61.99% # Class of committed instruction
system.cpu.op_class_0::SimdSqrt                     0      0.00%     61.99% # Class of committed instruction
system.cpu.op_class_0::SimdFloatAdd                 0      0.00%     61.99% # Class of committed instruction
system.cpu.op_class_0::SimdFloatAlu                 0      0.00%     61.99% # Class of committed instruction
system.cpu.op_class_0::SimdFloatCmp                 0      0.00%     61.99% # Class of committed instruction
system.cpu.op_class_0::SimdFloatCvt                 0      0.00%     61.99% # Class of committed instruction
system.cpu.op_class_0::SimdFloatDiv                 0      0.00%     61.99% # Class of committed instruction
system.cpu.op_class_0::SimdFloatMisc                0      0.00%     61.99% # Class of committed instruction
system.cpu.op_class_0::SimdFloatMult                0      0.00%     61.99% # Class of committed instruction
system.cpu.op_class_0::SimdFloatMultAcc             0      0.00%     61.99% # Class of committed instruction
system.cpu.op_class_0::SimdFloatSqrt                0      0.00%     61.99% # Class of committed instruction
system.cpu.op_class_0::MemRead               23853209     29.07%     91.06% # Class of committed instruction
system.cpu.op_class_0::MemWrite               7334237      8.94%    100.00% # Class of committed instruction
system.cpu.op_class_0::FloatMemRead               782      0.00%    100.00% # Class of committed instruction
system.cpu.op_class_0::FloatMemWrite              384      0.00%    100.00% # Class of committed instruction
system.cpu.op_class_0::IprAccess                    0      0.00%    100.00% # Class of committed instruction
system.cpu.op_class_0::InstPrefetch                 0      0.00%    100.00% # Class of committed instruction
system.cpu.op_class_0::total                 82046706                       # Class of committed instruction
system.cpu.tickCycles                       254489306                       # Number of cycles that the object actually ticked
system.cpu.idleCycles                      1614368496                       # Total number of cycles that the object has spent stopped
system.membus.snoop_filter.tot_requests             0                       # Total number of requests made to the snoop filter.
system.membus.snoop_filter.hit_single_requests            0                       # Number of requests hitting in the snoop filter with a single holder of the requested data.
system.membus.snoop_filter.hit_multi_requests            0                       # Number of requests hitting in the snoop filter with multiple (>1) holders of the requested data.
system.membus.snoop_filter.tot_snoops               0                       # Total number of snoops made to the snoop filter.
system.membus.snoop_filter.hit_single_snoops            0                       # Number of snoops hitting in the snoop filter with a single holder of the requested data.
system.membus.snoop_filter.hit_multi_snoops            0                       # Number of snoops hitting in the snoop filter with multiple (>1) holders of the requested data.
system.membus.pwrStateResidencyTicks::UNDEFINED 1246528153934                       # Cumulative time (in ticks) in various power states
system.membus.trans_dist::ReadReq            45214571                       # Transaction distribution
system.membus.trans_dist::ReadResp           45214570                       # Transaction distribution
system.membus.trans_dist::WriteReq            7334621                       # Transaction distribution
system.membus.trans_dist::WriteResp           7334621                       # Transaction distribution
system.membus.pkt_count_system.cpu.fetch1.icache_port::system.mem_ctrl.port     36621945                       # Packet count per connected master and slave (bytes)
system.membus.pkt_count_system.cpu.fetch1.icache_port::total     36621945                       # Packet count per connected master and slave (bytes)
system.membus.pkt_count_system.cpu.execute.dcache_port::system.mem_ctrl.port     68476438                       # Packet count per connected master and slave (bytes)
system.membus.pkt_count_system.cpu.execute.dcache_port::total     68476438                       # Packet count per connected master and slave (bytes)
system.membus.pkt_count::total              105098383                       # Packet count per connected master and slave (bytes)
system.membus.pkt_size_system.cpu.fetch1.icache_port::system.mem_ctrl.port   1171902208                       # Cumulative packet size per connected master and slave (bytes)
system.membus.pkt_size_system.cpu.fetch1.icache_port::total   1171902208                       # Cumulative packet size per connected master and slave (bytes)
system.membus.pkt_size_system.cpu.execute.dcache_port::system.mem_ctrl.port    153560630                       # Cumulative packet size per connected master and slave (bytes)
system.membus.pkt_size_system.cpu.execute.dcache_port::total    153560630                       # Cumulative packet size per connected master and slave (bytes)
system.membus.pkt_size::total              1325462838                       # Cumulative packet size per connected master and slave (bytes)
system.membus.snoops                                0                       # Total snoops (count)
system.membus.snoopTraffic                          0                       # Total snoop traffic (bytes)
system.membus.snoop_fanout::samples          52549192                       # Request fanout histogram
system.membus.snoop_fanout::mean                    0                       # Request fanout histogram
system.membus.snoop_fanout::stdev                   0                       # Request fanout histogram
system.membus.snoop_fanout::underflows              0      0.00%      0.00% # Request fanout histogram
system.membus.snoop_fanout::0                52549192    100.00%    100.00% # Request fanout histogram
system.membus.snoop_fanout::1                       0      0.00%    100.00% # Request fanout histogram
system.membus.snoop_fanout::overflows               0      0.00%    100.00% # Request fanout histogram
system.membus.snoop_fanout::min_value               0                       # Request fanout histogram
system.membus.snoop_fanout::max_value               0                       # Request fanout histogram
system.membus.snoop_fanout::total            52549192                       # Request fanout histogram
system.membus.reqLayer2.occupancy         39942503271                       # Layer occupancy (ticks)
system.membus.reqLayer2.utilization               3.2                       # Layer utilization (%)
system.membus.respLayer0.occupancy        68731771937                       # Layer occupancy (ticks)
system.membus.respLayer0.utilization              5.5                       # Layer utilization (%)
system.membus.respLayer1.occupancy        47992800712                       # Layer occupancy (ticks)
system.membus.respLayer1.utilization              3.9                       # Layer utilization (%)

---------- End Simulation Statistics   ----------
