
---------- Begin Simulation Statistics ----------
sim_seconds                                  5.284056                       # Number of seconds simulated
sim_ticks                                5284056158000                       # Number of ticks simulated
final_tick                               5284056158000                       # Number of ticks from beginning of simulation (restored from checkpoints and never reset)
sim_freq                                 1000000000000                       # Frequency of simulated ticks
host_inst_rate                                 260676                       # Simulator instruction rate (inst/s)
host_op_rate                                   448375                       # Simulator op (including micro ops) rate (op/s)
host_tick_rate                            28876690669                       # Simulator tick rate (ticks/s)
host_mem_usage                                 666112                       # Number of bytes of host memory used
host_seconds                                   182.99                       # Real time elapsed on the host
sim_insts                                    47700244                       # Number of instructions simulated
sim_ops                                      82046706                       # Number of ops (including micro ops) simulated
system.clk_domain.voltage_domain.voltage            1                       # Voltage in Volts
system.clk_domain.clock                          1000                       # Clock period in ticks
system.mem_ctrl.pwrStateResidencyTicks::UNDEFINED 5284056158000                       # Cumulative time (in ticks) in various power states
system.mem_ctrl.bytes_read::cpu.inst        506545384                       # Number of bytes read from this memory
system.mem_ctrl.bytes_read::cpu.data        111962384                       # Number of bytes read from this memory
system.mem_ctrl.bytes_read::total           618507768                       # Number of bytes read from this memory
system.mem_ctrl.bytes_inst_read::cpu.inst    506545384                       # Number of instructions bytes read from this memory
system.mem_ctrl.bytes_inst_read::total      506545384                       # Number of instructions bytes read from this memory
system.mem_ctrl.bytes_written::cpu.data      29377849                       # Number of bytes written to this memory
system.mem_ctrl.bytes_written::total         29377849                       # Number of bytes written to this memory
system.mem_ctrl.num_reads::cpu.inst          63318173                       # Number of read requests responded to by this memory
system.mem_ctrl.num_reads::cpu.data          23854000                       # Number of read requests responded to by this memory
system.mem_ctrl.num_reads::total             87172173                       # Number of read requests responded to by this memory
system.mem_ctrl.num_writes::cpu.data          7334621                       # Number of write requests responded to by this memory
system.mem_ctrl.num_writes::total             7334621                       # Number of write requests responded to by this memory
system.mem_ctrl.bw_read::cpu.inst            95862983                       # Total read bandwidth from this memory (bytes/s)
system.mem_ctrl.bw_read::cpu.data            21188720                       # Total read bandwidth from this memory (bytes/s)
system.mem_ctrl.bw_read::total              117051702                       # Total read bandwidth from this memory (bytes/s)
system.mem_ctrl.bw_inst_read::cpu.inst       95862983                       # Instruction read bandwidth from this memory (bytes/s)
system.mem_ctrl.bw_inst_read::total          95862983                       # Instruction read bandwidth from this memory (bytes/s)
system.mem_ctrl.bw_write::cpu.data            5559716                       # Write bandwidth from this memory (bytes/s)
system.mem_ctrl.bw_write::total               5559716                       # Write bandwidth from this memory (bytes/s)
system.mem_ctrl.bw_total::cpu.inst           95862983                       # Total bandwidth to/from this memory (bytes/s)
system.mem_ctrl.bw_total::cpu.data           26748435                       # Total bandwidth to/from this memory (bytes/s)
system.mem_ctrl.bw_total::total             122611418                       # Total bandwidth to/from this memory (bytes/s)
system.mem_ctrl.readReqs                     87172174                       # Number of read requests accepted
system.mem_ctrl.writeReqs                     7334621                       # Number of write requests accepted
system.mem_ctrl.readBursts                   87172184                       # Number of DRAM read bursts, including those serviced by the write queue
system.mem_ctrl.writeBursts                   7334621                       # Number of DRAM write bursts, including those merged in the write queue
system.mem_ctrl.bytesReadDRAM              2492789472                       # Total number of bytes read from DRAM
system.mem_ctrl.bytesReadWrQ                296720416                       # Total number of bytes read from write queue
system.mem_ctrl.bytesWritten                 53640608                       # Total number of bytes written to DRAM
system.mem_ctrl.bytesReadSys                618507776                       # Total read bytes from the system interface side
system.mem_ctrl.bytesWrittenSys              29377849                       # Total written bytes from the system interface side
system.mem_ctrl.servicedByWrQ                 9272513                       # Number of DRAM read bursts serviced by the write queue
system.mem_ctrl.mergedWrBursts                5658334                       # Number of DRAM write bursts merged with an existing one
system.mem_ctrl.neitherReadNorWriteReqs             0                       # Number of requests that are neither read nor write
system.mem_ctrl.perBankRdBursts::0            4325546                       # Per bank write bursts
system.mem_ctrl.perBankRdBursts::1           63263002                       # Per bank write bursts
system.mem_ctrl.perBankRdBursts::2             139144                       # Per bank write bursts
system.mem_ctrl.perBankRdBursts::3            9577195                       # Per bank write bursts
system.mem_ctrl.perBankRdBursts::4             134672                       # Per bank write bursts
system.mem_ctrl.perBankRdBursts::5             173615                       # Per bank write bursts
system.mem_ctrl.perBankRdBursts::6             155528                       # Per bank write bursts
system.mem_ctrl.perBankRdBursts::7             130969                       # Per bank write bursts
system.mem_ctrl.perBankWrBursts::0             196506                       # Per bank write bursts
system.mem_ctrl.perBankWrBursts::1             197005                       # Per bank write bursts
system.mem_ctrl.perBankWrBursts::2             199832                       # Per bank write bursts
system.mem_ctrl.perBankWrBursts::3             293017                       # Per bank write bursts
system.mem_ctrl.perBankWrBursts::4             199704                       # Per bank write bursts
system.mem_ctrl.perBankWrBursts::5             196912                       # Per bank write bursts
system.mem_ctrl.perBankWrBursts::6             196767                       # Per bank write bursts
system.mem_ctrl.perBankWrBursts::7             196526                       # Per bank write bursts
system.mem_ctrl.numRdRetry                          0                       # Number of times read queue was full causing retry
system.mem_ctrl.numWrRetry                          0                       # Number of times write queue was full causing retry
system.mem_ctrl.totGap                   5284056075000                       # Total gap between requests
system.mem_ctrl.readPktSize::0                   7395                       # Read request sizes (log2)
system.mem_ctrl.readPktSize::1                   2605                       # Read request sizes (log2)
system.mem_ctrl.readPktSize::2               19700569                       # Read request sizes (log2)
system.mem_ctrl.readPktSize::3               67461615                       # Read request sizes (log2)
system.mem_ctrl.readPktSize::4                      0                       # Read request sizes (log2)
system.mem_ctrl.readPktSize::5                      0                       # Read request sizes (log2)
system.mem_ctrl.writePktSize::0                   109                       # Write request sizes (log2)
system.mem_ctrl.writePktSize::1                    20                       # Write request sizes (log2)
system.mem_ctrl.writePktSize::2               7324559                       # Write request sizes (log2)
system.mem_ctrl.writePktSize::3                  9933                       # Write request sizes (log2)
system.mem_ctrl.writePktSize::4                     0                       # Write request sizes (log2)
system.mem_ctrl.writePktSize::5                     0                       # Write request sizes (log2)
system.mem_ctrl.rdQLenPdf::0                 77899652                       # What read queue length does an incoming req see
system.mem_ctrl.rdQLenPdf::1                       19                       # What read queue length does an incoming req see
system.mem_ctrl.rdQLenPdf::2                        0                       # What read queue length does an incoming req see
system.mem_ctrl.rdQLenPdf::3                        0                       # What read queue length does an incoming req see
system.mem_ctrl.rdQLenPdf::4                        0                       # What read queue length does an incoming req see
system.mem_ctrl.rdQLenPdf::5                        0                       # What read queue length does an incoming req see
system.mem_ctrl.rdQLenPdf::6                        0                       # What read queue length does an incoming req see
system.mem_ctrl.rdQLenPdf::7                        0                       # What read queue length does an incoming req see
system.mem_ctrl.rdQLenPdf::8                        0                       # What read queue length does an incoming req see
system.mem_ctrl.rdQLenPdf::9                        0                       # What read queue length does an incoming req see
system.mem_ctrl.rdQLenPdf::10                       0                       # What read queue length does an incoming req see
system.mem_ctrl.rdQLenPdf::11                       0                       # What read queue length does an incoming req see
system.mem_ctrl.rdQLenPdf::12                       0                       # What read queue length does an incoming req see
system.mem_ctrl.rdQLenPdf::13                       0                       # What read queue length does an incoming req see
system.mem_ctrl.rdQLenPdf::14                       0                       # What read queue length does an incoming req see
system.mem_ctrl.rdQLenPdf::15                       0                       # What read queue length does an incoming req see
system.mem_ctrl.rdQLenPdf::16                       0                       # What read queue length does an incoming req see
system.mem_ctrl.rdQLenPdf::17                       0                       # What read queue length does an incoming req see
system.mem_ctrl.rdQLenPdf::18                       0                       # What read queue length does an incoming req see
system.mem_ctrl.rdQLenPdf::19                       0                       # What read queue length does an incoming req see
system.mem_ctrl.rdQLenPdf::20                       0                       # What read queue length does an incoming req see
system.mem_ctrl.rdQLenPdf::21                       0                       # What read queue length does an incoming req see
system.mem_ctrl.rdQLenPdf::22                       0                       # What read queue length does an incoming req see
system.mem_ctrl.rdQLenPdf::23                       0                       # What read queue length does an incoming req see
system.mem_ctrl.rdQLenPdf::24                       0                       # What read queue length does an incoming req see
system.mem_ctrl.rdQLenPdf::25                       0                       # What read queue length does an incoming req see
system.mem_ctrl.rdQLenPdf::26                       0                       # What read queue length does an incoming req see
system.mem_ctrl.rdQLenPdf::27                       0                       # What read queue length does an incoming req see
system.mem_ctrl.rdQLenPdf::28                       0                       # What read queue length does an incoming req see
system.mem_ctrl.rdQLenPdf::29                       0                       # What read queue length does an incoming req see
system.mem_ctrl.rdQLenPdf::30                       0                       # What read queue length does an incoming req see
system.mem_ctrl.rdQLenPdf::31                       0                       # What read queue length does an incoming req see
system.mem_ctrl.wrQLenPdf::0                        1                       # What write queue length does an incoming req see
system.mem_ctrl.wrQLenPdf::1                        1                       # What write queue length does an incoming req see
system.mem_ctrl.wrQLenPdf::2                        1                       # What write queue length does an incoming req see
system.mem_ctrl.wrQLenPdf::3                        1                       # What write queue length does an incoming req see
system.mem_ctrl.wrQLenPdf::4                        1                       # What write queue length does an incoming req see
system.mem_ctrl.wrQLenPdf::5                        1                       # What write queue length does an incoming req see
system.mem_ctrl.wrQLenPdf::6                        1                       # What write queue length does an incoming req see
system.mem_ctrl.wrQLenPdf::7                        1                       # What write queue length does an incoming req see
system.mem_ctrl.wrQLenPdf::8                        1                       # What write queue length does an incoming req see
system.mem_ctrl.wrQLenPdf::9                        1                       # What write queue length does an incoming req see
system.mem_ctrl.wrQLenPdf::10                       1                       # What write queue length does an incoming req see
system.mem_ctrl.wrQLenPdf::11                       1                       # What write queue length does an incoming req see
system.mem_ctrl.wrQLenPdf::12                       1                       # What write queue length does an incoming req see
system.mem_ctrl.wrQLenPdf::13                       1                       # What write queue length does an incoming req see
system.mem_ctrl.wrQLenPdf::14                       1                       # What write queue length does an incoming req see
system.mem_ctrl.wrQLenPdf::15                       5                       # What write queue length does an incoming req see
system.mem_ctrl.wrQLenPdf::16                       5                       # What write queue length does an incoming req see
system.mem_ctrl.wrQLenPdf::17                  104769                       # What write queue length does an incoming req see
system.mem_ctrl.wrQLenPdf::18                  104766                       # What write queue length does an incoming req see
system.mem_ctrl.wrQLenPdf::19                  104766                       # What write queue length does an incoming req see
system.mem_ctrl.wrQLenPdf::20                  104767                       # What write queue length does an incoming req see
system.mem_ctrl.wrQLenPdf::21                  104767                       # What write queue length does an incoming req see
system.mem_ctrl.wrQLenPdf::22                  104766                       # What write queue length does an incoming req see
system.mem_ctrl.wrQLenPdf::23                  104766                       # What write queue length does an incoming req see
system.mem_ctrl.wrQLenPdf::24                  104766                       # What write queue length does an incoming req see
system.mem_ctrl.wrQLenPdf::25                  104766                       # What write queue length does an incoming req see
system.mem_ctrl.wrQLenPdf::26                  104766                       # What write queue length does an incoming req see
system.mem_ctrl.wrQLenPdf::27                  104766                       # What write queue length does an incoming req see
system.mem_ctrl.wrQLenPdf::28                  104766                       # What write queue length does an incoming req see
system.mem_ctrl.wrQLenPdf::29                  104767                       # What write queue length does an incoming req see
system.mem_ctrl.wrQLenPdf::30                  104766                       # What write queue length does an incoming req see
system.mem_ctrl.wrQLenPdf::31                  104766                       # What write queue length does an incoming req see
system.mem_ctrl.wrQLenPdf::32                  104766                       # What write queue length does an incoming req see
system.mem_ctrl.wrQLenPdf::33                       0                       # What write queue length does an incoming req see
system.mem_ctrl.wrQLenPdf::34                       0                       # What write queue length does an incoming req see
system.mem_ctrl.wrQLenPdf::35                       0                       # What write queue length does an incoming req see
system.mem_ctrl.wrQLenPdf::36                       0                       # What write queue length does an incoming req see
system.mem_ctrl.wrQLenPdf::37                       0                       # What write queue length does an incoming req see
system.mem_ctrl.wrQLenPdf::38                       0                       # What write queue length does an incoming req see
system.mem_ctrl.wrQLenPdf::39                       0                       # What write queue length does an incoming req see
system.mem_ctrl.wrQLenPdf::40                       0                       # What write queue length does an incoming req see
system.mem_ctrl.wrQLenPdf::41                       0                       # What write queue length does an incoming req see
system.mem_ctrl.wrQLenPdf::42                       0                       # What write queue length does an incoming req see
system.mem_ctrl.wrQLenPdf::43                       0                       # What write queue length does an incoming req see
system.mem_ctrl.wrQLenPdf::44                       0                       # What write queue length does an incoming req see
system.mem_ctrl.wrQLenPdf::45                       0                       # What write queue length does an incoming req see
system.mem_ctrl.wrQLenPdf::46                       0                       # What write queue length does an incoming req see
system.mem_ctrl.wrQLenPdf::47                       0                       # What write queue length does an incoming req see
system.mem_ctrl.wrQLenPdf::48                       0                       # What write queue length does an incoming req see
system.mem_ctrl.wrQLenPdf::49                       0                       # What write queue length does an incoming req see
system.mem_ctrl.wrQLenPdf::50                       0                       # What write queue length does an incoming req see
system.mem_ctrl.wrQLenPdf::51                       0                       # What write queue length does an incoming req see
system.mem_ctrl.wrQLenPdf::52                       0                       # What write queue length does an incoming req see
system.mem_ctrl.wrQLenPdf::53                       0                       # What write queue length does an incoming req see
system.mem_ctrl.wrQLenPdf::54                       0                       # What write queue length does an incoming req see
system.mem_ctrl.wrQLenPdf::55                       0                       # What write queue length does an incoming req see
system.mem_ctrl.wrQLenPdf::56                       0                       # What write queue length does an incoming req see
system.mem_ctrl.wrQLenPdf::57                       0                       # What write queue length does an incoming req see
system.mem_ctrl.wrQLenPdf::58                       0                       # What write queue length does an incoming req see
system.mem_ctrl.wrQLenPdf::59                       0                       # What write queue length does an incoming req see
system.mem_ctrl.wrQLenPdf::60                       0                       # What write queue length does an incoming req see
system.mem_ctrl.wrQLenPdf::61                       0                       # What write queue length does an incoming req see
system.mem_ctrl.wrQLenPdf::62                       0                       # What write queue length does an incoming req see
system.mem_ctrl.wrQLenPdf::63                       0                       # What write queue length does an incoming req see
system.mem_ctrl.bytesPerActivate::samples      8489287                       # Bytes accessed per row activation
system.mem_ctrl.bytesPerActivate::mean     299.958021                       # Bytes accessed per row activation
system.mem_ctrl.bytesPerActivate::gmean    206.521600                       # Bytes accessed per row activation
system.mem_ctrl.bytesPerActivate::stdev    200.898092                       # Bytes accessed per row activation
system.mem_ctrl.bytesPerActivate::0-63        1080963     12.73%     12.73% # Bytes accessed per row activation
system.mem_ctrl.bytesPerActivate::64-127      1749950     20.61%     33.35% # Bytes accessed per row activation
system.mem_ctrl.bytesPerActivate::128-191       497755      5.86%     39.21% # Bytes accessed per row activation
system.mem_ctrl.bytesPerActivate::192-255       707783      8.34%     47.55% # Bytes accessed per row activation
system.mem_ctrl.bytesPerActivate::256-319        86473      1.02%     48.57% # Bytes accessed per row activation
system.mem_ctrl.bytesPerActivate::320-383       426598      5.03%     53.59% # Bytes accessed per row activation
system.mem_ctrl.bytesPerActivate::384-447       258880      3.05%     56.64% # Bytes accessed per row activation
system.mem_ctrl.bytesPerActivate::448-511       158830      1.87%     58.51% # Bytes accessed per row activation
system.mem_ctrl.bytesPerActivate::512-575      3522055     41.49%    100.00% # Bytes accessed per row activation
system.mem_ctrl.bytesPerActivate::total       8489287                       # Bytes accessed per row activation
system.mem_ctrl.rdPerTurnAround::samples       104766                       # Reads before turning the bus around for writes
system.mem_ctrl.rdPerTurnAround::mean      743.558368                       # Reads before turning the bus around for writes
system.mem_ctrl.rdPerTurnAround::stdev   65609.595013                       # Reads before turning the bus around for writes
system.mem_ctrl.rdPerTurnAround::0-1.04858e+06       104765    100.00%    100.00% # Reads before turning the bus around for writes
system.mem_ctrl.rdPerTurnAround::2.09715e+07-2.20201e+07            1      0.00%    100.00% # Reads before turning the bus around for writes
system.mem_ctrl.rdPerTurnAround::total         104766                       # Reads before turning the bus around for writes
system.mem_ctrl.wrPerTurnAround::samples       104766                       # Writes before turning the bus around for reads
system.mem_ctrl.wrPerTurnAround::mean       16.000124                       # Writes before turning the bus around for reads
system.mem_ctrl.wrPerTurnAround::gmean      16.000113                       # Writes before turning the bus around for reads
system.mem_ctrl.wrPerTurnAround::stdev       0.020259                       # Writes before turning the bus around for reads
system.mem_ctrl.wrPerTurnAround::16            104762    100.00%    100.00% # Writes before turning the bus around for reads
system.mem_ctrl.wrPerTurnAround::19                 3      0.00%    100.00% # Writes before turning the bus around for reads
system.mem_ctrl.wrPerTurnAround::20                 1      0.00%    100.00% # Writes before turning the bus around for reads
system.mem_ctrl.wrPerTurnAround::total         104766                       # Writes before turning the bus around for reads
system.mem_ctrl.totQLat                  852646346904                       # Total ticks spent queuing
system.mem_ctrl.totMemAccLat             2605388944404                       # Total ticks spent from burst creation until serviced by the DRAM
system.mem_ctrl.totBusLat                584247532500                       # Total ticks spent in databus transfers
system.mem_ctrl.avgQLat                      10945.44                       # Average queueing delay per DRAM burst
system.mem_ctrl.avgBusLat                     7500.00                       # Average bus latency per DRAM burst
system.mem_ctrl.avgMemAccLat                 33445.44                       # Average memory access latency per DRAM burst
system.mem_ctrl.avgRdBW                        471.76                       # Average DRAM read bandwidth in MiByte/s
system.mem_ctrl.avgWrBW                         10.15                       # Average achieved write bandwidth in MiByte/s
system.mem_ctrl.avgRdBWSys                     117.05                       # Average system read bandwidth in MiByte/s
system.mem_ctrl.avgWrBWSys                       5.56                       # Average system write bandwidth in MiByte/s
system.mem_ctrl.peakBW                        4266.00                       # Theoretical peak bandwidth in MiByte/s
system.mem_ctrl.busUtil                         11.30                       # Data bus utilization in percentage
system.mem_ctrl.busUtilRead                     11.06                       # Data bus utilization in percentage for reads
system.mem_ctrl.busUtilWrite                     0.24                       # Data bus utilization in percentage for writes
system.mem_ctrl.avgRdQLen                        1.00                       # Average read queue length when enqueuing
system.mem_ctrl.avgWrQLen                       27.03                       # Average write queue length when enqueuing
system.mem_ctrl.readRowHits                  69857705                       # Number of row buffer hits during reads
system.mem_ctrl.writeRowHits                  1228946                       # Number of row buffer hits during writes
system.mem_ctrl.readRowHitRate                  89.68                       # Row buffer hit rate for reads
system.mem_ctrl.writeRowHitRate                 73.31                       # Row buffer hit rate for writes
system.mem_ctrl.avgGap                       55911.92                       # Average gap between requests
system.mem_ctrl.pageHitRate                     89.33                       # Row buffer hit rate, read and write combined
system.mem_ctrl_0.actEnergy              25823856844.925995                       # Energy for activate commands per rank (pJ)
system.mem_ctrl_0.preEnergy              9096875457.734398                       # Energy for precharge commands per rank (pJ)
system.mem_ctrl_0.readEnergy             133805583410.351990                       # Energy for read commands per rank (pJ)
system.mem_ctrl_0.writeEnergy            2584927489.368000                       # Energy for write commands per rank (pJ)
system.mem_ctrl_0.refreshEnergy          37776134379.059998                       # Energy for refresh commands per rank (pJ)
system.mem_ctrl_0.actBackEnergy          109946550127.427994                       # Energy for active background per rank (pJ)
system.mem_ctrl_0.preBackEnergy          1662094147.190400                       # Energy for precharge background per rank (pJ)
system.mem_ctrl_0.actPowerDownEnergy     29713918983.053757                       # Energy for active power-down per rank (pJ)
system.mem_ctrl_0.prePowerDownEnergy     1347749.541600                       # Energy for precharge power-down per rank (pJ)
system.mem_ctrl_0.selfRefreshEnergy                 0                       # Energy for self refresh per rank (pJ)
system.mem_ctrl_0.totalEnergy            350411288588.654175                       # Total energy per rank (pJ)
system.mem_ctrl_0.averagePower              66.314830                       # Core power per rank (mW)
system.mem_ctrl_0.totalIdleTime          2527367471250                       # Total Idle time Per DRAM Rank
system.mem_ctrl_0.memoryStateTime::IDLE    2609752500                       # Time in different power states
system.mem_ctrl_0.memoryStateTime::REF   176815217500                       # Time in different power states
system.mem_ctrl_0.memoryStateTime::SREF             0                       # Time in different power states
system.mem_ctrl_0.memoryStateTime::PRE_PDN    660653868                       # Time in different power states
system.mem_ctrl_0.memoryStateTime::ACT   2577263716750                       # Time in different power states
system.mem_ctrl_0.memoryStateTime::ACT_PDN 2526706817382                       # Time in different power states
system.pwrStateResidencyTicks::UNDEFINED 5284056158000                       # Cumulative time (in ticks) in various power states
system.cpu.dtb.walker.pwrStateResidencyTicks::UNDEFINED 5284056158000                       # Cumulative time (in ticks) in various power states
system.cpu.dtb.rdAccesses                    23854000                       # TLB accesses on read requests
system.cpu.dtb.wrAccesses                     7334621                       # TLB accesses on write requests
system.cpu.dtb.rdMisses                          1229                       # TLB misses on read requests
system.cpu.dtb.wrMisses                        116843                       # TLB misses on write requests
system.cpu.apic_clk_domain.clock                16000                       # Clock period in ticks
system.cpu.interrupts.pwrStateResidencyTicks::UNDEFINED 5284056158000                       # Cumulative time (in ticks) in various power states
system.cpu.itb.walker.pwrStateResidencyTicks::UNDEFINED 5284056158000                       # Cumulative time (in ticks) in various power states
system.cpu.itb.rdAccesses                           0                       # TLB accesses on read requests
system.cpu.itb.wrAccesses                    63318174                       # TLB accesses on write requests
system.cpu.itb.rdMisses                             0                       # TLB misses on read requests
system.cpu.itb.wrMisses                            89                       # TLB misses on write requests
system.cpu.workload.numSyscalls                    33                       # Number of system calls
system.cpu.pwrStateResidencyTicks::ON    5284056158000                       # Cumulative time (in ticks) in various power states
system.cpu.numCycles                       5284056158                       # number of cpu cycles simulated
system.cpu.numWorkItemsStarted                      0                       # number of work items this cpu started
system.cpu.numWorkItemsCompleted                    0                       # number of work items this cpu completed
system.cpu.committedInsts                    47700244                       # Number of instructions committed
system.cpu.committedOps                      82046706                       # Number of ops (including micro ops) committed
system.cpu.num_int_alu_accesses              82043407                       # Number of integer alu accesses
system.cpu.num_fp_alu_accesses                   3447                       # Number of float alu accesses
system.cpu.num_vec_alu_accesses                     0                       # Number of vector alu accesses
system.cpu.num_func_calls                        1358                       # number of times a function call or return occured
system.cpu.num_conditional_control_insts      5151277                       # number of instructions that are conditional controls
system.cpu.num_int_insts                     82043407                       # number of integer instructions
system.cpu.num_fp_insts                          3447                       # number of float instructions
system.cpu.num_vec_insts                            0                       # number of vector instructions
system.cpu.num_int_register_reads           173517092                       # number of times the integer registers were read
system.cpu.num_int_register_writes           69557594                       # number of times the integer registers were written
system.cpu.num_fp_register_reads                 5525                       # number of times the floating registers were read
system.cpu.num_fp_register_writes                2660                       # number of times the floating registers were written
system.cpu.num_vec_register_reads                   0                       # number of times the vector registers were read
system.cpu.num_vec_register_writes                  0                       # number of times the vector registers were written
system.cpu.num_cc_register_reads             26790677                       # number of times the CC registers were read
system.cpu.num_cc_register_writes            31250784                       # number of times the CC registers were written
system.cpu.num_mem_refs                      31188612                       # number of memory refs
system.cpu.num_load_insts                    23853991                       # Number of load instructions
system.cpu.num_store_insts                    7334621                       # Number of store instructions
system.cpu.num_idle_cycles                          0                       # Number of idle cycles
system.cpu.num_busy_cycles                 5284056158                       # Number of busy cycles
system.cpu.not_idle_fraction                        1                       # Percentage of non-idle cycles
system.cpu.idle_fraction                            0                       # Percentage of idle cycles
system.cpu.Branches                           5154587                       # Number of branches fetched
system.cpu.op_class::No_OpClass                  1287      0.00%      0.00% # Class of executed instruction
system.cpu.op_class::IntAlu                  50852257     61.98%     61.98% # Class of executed instruction
system.cpu.op_class::IntMult                     1192      0.00%     61.98% # Class of executed instruction
system.cpu.op_class::IntDiv                      1131      0.00%     61.98% # Class of executed instruction
system.cpu.op_class::FloatAdd                    2227      0.00%     61.99% # Class of executed instruction
system.cpu.op_class::FloatCmp                       0      0.00%     61.99% # Class of executed instruction
system.cpu.op_class::FloatCvt                       0      0.00%     61.99% # Class of executed instruction
system.cpu.op_class::FloatMult                      0      0.00%     61.99% # Class of executed instruction
system.cpu.op_class::FloatMultAcc                   0      0.00%     61.99% # Class of executed instruction
system.cpu.op_class::FloatDiv                       0      0.00%     61.99% # Class of executed instruction
system.cpu.op_class::FloatMisc                      0      0.00%     61.99% # Class of executed instruction
system.cpu.op_class::FloatSqrt                      0      0.00%     61.99% # Class of executed instruction
system.cpu.op_class::SimdAdd                        0      0.00%     61.99% # Class of executed instruction
system.cpu.op_class::SimdAddAcc                     0      0.00%     61.99% # Class of executed instruction
system.cpu.op_class::SimdAlu                        0      0.00%     61.99% # Class of executed instruction
system.cpu.op_class::SimdCmp                        0      0.00%     61.99% # Class of executed instruction
system.cpu.op_class::SimdCvt                        0      0.00%     61.99% # Class of executed instruction
system.cpu.op_class::SimdMisc                       0      0.00%     61.99% # Class of executed instruction
system.cpu.op_class::SimdMult                       0      0.00%     61.99% # Class of executed instruction
system.cpu.op_class::SimdMultAcc                    0      0.00%     61.99% # Class of executed instruction
system.cpu.op_class::SimdShift                      0      0.00%     61.99% # Class of executed instruction
system.cpu.op_class::SimdShiftAcc                   0      0.00%     61.99% # Class of executed instruction
system.cpu.op_class::SimdSqrt                       0      0.00%     61.99% # Class of executed instruction
system.cpu.op_class::SimdFloatAdd                   0      0.00%     61.99% # Class of executed instruction
system.cpu.op_class::SimdFloatAlu                   0      0.00%     61.99% # Class of executed instruction
system.cpu.op_class::SimdFloatCmp                   0      0.00%     61.99% # Class of executed instruction
system.cpu.op_class::SimdFloatCvt                   0      0.00%     61.99% # Class of executed instruction
system.cpu.op_class::SimdFloatDiv                   0      0.00%     61.99% # Class of executed instruction
system.cpu.op_class::SimdFloatMisc                  0      0.00%     61.99% # Class of executed instruction
system.cpu.op_class::SimdFloatMult                  0      0.00%     61.99% # Class of executed instruction
system.cpu.op_class::SimdFloatMultAcc               0      0.00%     61.99% # Class of executed instruction
system.cpu.op_class::SimdFloatSqrt                  0      0.00%     61.99% # Class of executed instruction
system.cpu.op_class::MemRead                 23853209     29.07%     91.06% # Class of executed instruction
system.cpu.op_class::MemWrite                 7334237      8.94%    100.00% # Class of executed instruction
system.cpu.op_class::FloatMemRead                 782      0.00%    100.00% # Class of executed instruction
system.cpu.op_class::FloatMemWrite                384      0.00%    100.00% # Class of executed instruction
system.cpu.op_class::IprAccess                      0      0.00%    100.00% # Class of executed instruction
system.cpu.op_class::InstPrefetch                   0      0.00%    100.00% # Class of executed instruction
system.cpu.op_class::total                   82046706                       # Class of executed instruction
system.membus.snoop_filter.tot_requests             0                       # Total number of requests made to the snoop filter.
system.membus.snoop_filter.hit_single_requests            0                       # Number of requests hitting in the snoop filter with a single holder of the requested data.
system.membus.snoop_filter.hit_multi_requests            0                       # Number of requests hitting in the snoop filter with multiple (>1) holders of the requested data.
system.membus.snoop_filter.tot_snoops               0                       # Total number of snoops made to the snoop filter.
system.membus.snoop_filter.hit_single_snoops            0                       # Number of snoops hitting in the snoop filter with a single holder of the requested data.
system.membus.snoop_filter.hit_multi_snoops            0                       # Number of snoops hitting in the snoop filter with multiple (>1) holders of the requested data.
system.membus.pwrStateResidencyTicks::UNDEFINED 5284056158000                       # Cumulative time (in ticks) in various power states
system.membus.trans_dist::ReadReq            87172174                       # Transaction distribution
system.membus.trans_dist::ReadResp           87172173                       # Transaction distribution
system.membus.trans_dist::WriteReq            7334621                       # Transaction distribution
system.membus.trans_dist::WriteResp           7334621                       # Transaction distribution
system.membus.pkt_count_system.cpu.icache_port::system.mem_ctrl.port    126636347                       # Packet count per connected master and slave (bytes)
system.membus.pkt_count_system.cpu.icache_port::total    126636347                       # Packet count per connected master and slave (bytes)
system.membus.pkt_count_system.cpu.dcache_port::system.mem_ctrl.port     62377242                       # Packet count per connected master and slave (bytes)
system.membus.pkt_count_system.cpu.dcache_port::total     62377242                       # Packet count per connected master and slave (bytes)
system.membus.pkt_count::total              189013589                       # Packet count per connected master and slave (bytes)
system.membus.pkt_size_system.cpu.icache_port::system.mem_ctrl.port    506545384                       # Cumulative packet size per connected master and slave (bytes)
system.membus.pkt_size_system.cpu.icache_port::total    506545384                       # Cumulative packet size per connected master and slave (bytes)
system.membus.pkt_size_system.cpu.dcache_port::system.mem_ctrl.port    141340233                       # Cumulative packet size per connected master and slave (bytes)
system.membus.pkt_size_system.cpu.dcache_port::total    141340233                       # Cumulative packet size per connected master and slave (bytes)
system.membus.pkt_size::total               647885617                       # Cumulative packet size per connected master and slave (bytes)
system.membus.snoops                                0                       # Total snoops (count)
system.membus.snoopTraffic                          0                       # Total snoop traffic (bytes)
system.membus.snoop_fanout::samples          94506795                       # Request fanout histogram
system.membus.snoop_fanout::mean                    0                       # Request fanout histogram
system.membus.snoop_fanout::stdev                   0                       # Request fanout histogram
system.membus.snoop_fanout::underflows              0      0.00%      0.00% # Request fanout histogram
system.membus.snoop_fanout::0                94506795    100.00%    100.00% # Request fanout histogram
system.membus.snoop_fanout::1                       0      0.00%    100.00% # Request fanout histogram
system.membus.snoop_fanout::overflows               0      0.00%    100.00% # Request fanout histogram
system.membus.snoop_fanout::min_value               0                       # Request fanout histogram
system.membus.snoop_fanout::max_value               0                       # Request fanout histogram
system.membus.snoop_fanout::total            94506795                       # Request fanout histogram
system.membus.reqLayer2.occupancy        101841416000                       # Layer occupancy (ticks)
system.membus.reqLayer2.utilization               1.9                       # Layer utilization (%)
system.membus.respLayer0.occupancy       128266179496                       # Layer occupancy (ticks)
system.membus.respLayer0.utilization              2.4                       # Layer utilization (%)
system.membus.respLayer1.occupancy        55613866100                       # Layer occupancy (ticks)
system.membus.respLayer1.utilization              1.1                       # Layer utilization (%)

---------- End Simulation Statistics   ----------
