
---------- Begin Simulation Statistics ----------
sim_seconds                                  0.151439                       # Number of seconds simulated
sim_ticks                                151438945632                       # Number of ticks simulated
final_tick                               151438945632                       # Number of ticks from beginning of simulation (restored from checkpoints and never reset)
sim_freq                                 1000000000000                       # Frequency of simulated ticks
host_inst_rate                                1197094                       # Simulator instruction rate (inst/s)
host_op_rate                                  2059060                       # Simulator op (including micro ops) rate (op/s)
host_tick_rate                             3800539674                       # Simulator tick rate (ticks/s)
host_mem_usage                                 684808                       # Number of bytes of host memory used
host_seconds                                    39.85                       # Real time elapsed on the host
sim_insts                                    47700244                       # Number of instructions simulated
sim_ops                                      82046706                       # Number of ops (including micro ops) simulated
system.clk_domain.voltage_domain.voltage            1                       # Voltage in Volts
system.clk_domain.clock                           667                       # Clock period in ticks
system.mem_ctrl.pwrStateResidencyTicks::UNDEFINED 151438945632                       # Cumulative time (in ticks) in various power states
system.mem_ctrl.bytes_read::cpu.inst            54464                       # Number of bytes read from this memory
system.mem_ctrl.bytes_read::cpu.data          4159424                       # Number of bytes read from this memory
system.mem_ctrl.bytes_read::total             4213888                       # Number of bytes read from this memory
system.mem_ctrl.bytes_inst_read::cpu.inst        54464                       # Number of instructions bytes read from this memory
system.mem_ctrl.bytes_inst_read::total          54464                       # Number of instructions bytes read from this memory
system.mem_ctrl.bytes_written::writebacks        29120                       # Number of bytes written to this memory
system.mem_ctrl.bytes_written::total            29120                       # Number of bytes written to this memory
system.mem_ctrl.num_reads::cpu.inst               851                       # Number of read requests responded to by this memory
system.mem_ctrl.num_reads::cpu.data             64991                       # Number of read requests responded to by this memory
system.mem_ctrl.num_reads::total                65842                       # Number of read requests responded to by this memory
system.mem_ctrl.num_writes::writebacks            455                       # Number of write requests responded to by this memory
system.mem_ctrl.num_writes::total                 455                       # Number of write requests responded to by this memory
system.mem_ctrl.bw_read::cpu.inst              359643                       # Total read bandwidth from this memory (bytes/s)
system.mem_ctrl.bw_read::cpu.data            27466013                       # Total read bandwidth from this memory (bytes/s)
system.mem_ctrl.bw_read::total               27825656                       # Total read bandwidth from this memory (bytes/s)
system.mem_ctrl.bw_inst_read::cpu.inst         359643                       # Instruction read bandwidth from this memory (bytes/s)
system.mem_ctrl.bw_inst_read::total            359643                       # Instruction read bandwidth from this memory (bytes/s)
system.mem_ctrl.bw_write::writebacks           192289                       # Write bandwidth from this memory (bytes/s)
system.mem_ctrl.bw_write::total                192289                       # Write bandwidth from this memory (bytes/s)
system.mem_ctrl.bw_total::writebacks           192289                       # Total bandwidth to/from this memory (bytes/s)
system.mem_ctrl.bw_total::cpu.inst             359643                       # Total bandwidth to/from this memory (bytes/s)
system.mem_ctrl.bw_total::cpu.data           27466013                       # Total bandwidth to/from this memory (bytes/s)
system.mem_ctrl.bw_total::total              28017945                       # Total bandwidth to/from this memory (bytes/s)
system.mem_ctrl.readReqs                        65842                       # Number of read requests accepted
system.mem_ctrl.writeReqs                         455                       # Number of write requests accepted
system.mem_ctrl.readBursts                      65842                       # Number of DRAM read bursts, including those serviced by the write queue
system.mem_ctrl.writeBursts                       455                       # Number of DRAM write bursts, including those merged in the write queue
system.mem_ctrl.bytesReadDRAM                 4209856                       # Total number of bytes read from DRAM
system.mem_ctrl.bytesReadWrQ                     4032                       # Total number of bytes read from write queue
system.mem_ctrl.bytesWritten                    24064                       # Total number of bytes written to DRAM
system.mem_ctrl.bytesReadSys                  4213888                       # Total read bytes from the system interface side
system.mem_ctrl.bytesWrittenSys                 29120                       # Total written bytes from the system interface side
system.mem_ctrl.servicedByWrQ                      63                       # Number of DRAM read bursts serviced by the write queue
system.mem_ctrl.mergedWrBursts                     55                       # Number of DRAM write bursts merged with an existing one
system.mem_ctrl.neitherReadNorWriteReqs             0                       # Number of requests that are neither read nor write
system.mem_ctrl.perBankRdBursts::0               4195                       # Per bank write bursts
system.mem_ctrl.perBankRdBursts::1               4190                       # Per bank write bursts
system.mem_ctrl.perBankRdBursts::2               4166                       # Per bank write bursts
system.mem_ctrl.perBankRdBursts::3               4108                       # Per bank write bursts
system.mem_ctrl.perBankRdBursts::4               4217                       # Per bank write bursts
system.mem_ctrl.perBankRdBursts::5               4245                       # Per bank write bursts
system.mem_ctrl.perBankRdBursts::6               4241                       # Per bank write bursts
system.mem_ctrl.perBankRdBursts::7               4116                       # Per bank write bursts
system.mem_ctrl.perBankRdBursts::8               4046                       # Per bank write bursts
system.mem_ctrl.perBankRdBursts::9               4129                       # Per bank write bursts
system.mem_ctrl.perBankRdBursts::10              4164                       # Per bank write bursts
system.mem_ctrl.perBankRdBursts::11              4079                       # Per bank write bursts
system.mem_ctrl.perBankRdBursts::12              3878                       # Per bank write bursts
system.mem_ctrl.perBankRdBursts::13              3905                       # Per bank write bursts
system.mem_ctrl.perBankRdBursts::14              3963                       # Per bank write bursts
system.mem_ctrl.perBankRdBursts::15              4137                       # Per bank write bursts
system.mem_ctrl.perBankWrBursts::0                 16                       # Per bank write bursts
system.mem_ctrl.perBankWrBursts::1                 15                       # Per bank write bursts
system.mem_ctrl.perBankWrBursts::2                  0                       # Per bank write bursts
system.mem_ctrl.perBankWrBursts::3                  3                       # Per bank write bursts
system.mem_ctrl.perBankWrBursts::4                 31                       # Per bank write bursts
system.mem_ctrl.perBankWrBursts::5                 84                       # Per bank write bursts
system.mem_ctrl.perBankWrBursts::6                 83                       # Per bank write bursts
system.mem_ctrl.perBankWrBursts::7                 53                       # Per bank write bursts
system.mem_ctrl.perBankWrBursts::8                  1                       # Per bank write bursts
system.mem_ctrl.perBankWrBursts::9                 20                       # Per bank write bursts
system.mem_ctrl.perBankWrBursts::10                40                       # Per bank write bursts
system.mem_ctrl.perBankWrBursts::11                 4                       # Per bank write bursts
system.mem_ctrl.perBankWrBursts::12                 2                       # Per bank write bursts
system.mem_ctrl.perBankWrBursts::13                 0                       # Per bank write bursts
system.mem_ctrl.perBankWrBursts::14                12                       # Per bank write bursts
system.mem_ctrl.perBankWrBursts::15                12                       # Per bank write bursts
system.mem_ctrl.numRdRetry                          0                       # Number of times read queue was full causing retry
system.mem_ctrl.numWrRetry                          0                       # Number of times write queue was full causing retry
system.mem_ctrl.totGap                   151438925622                       # Total gap between requests
system.mem_ctrl.readPktSize::0                      0                       # Read request sizes (log2)
system.mem_ctrl.readPktSize::1                      0                       # Read request sizes (log2)
system.mem_ctrl.readPktSize::2                      0                       # Read request sizes (log2)
system.mem_ctrl.readPktSize::3                      0                       # Read request sizes (log2)
system.mem_ctrl.readPktSize::4                      0                       # Read request sizes (log2)
system.mem_ctrl.readPktSize::5                      0                       # Read request sizes (log2)
system.mem_ctrl.readPktSize::6                  65842                       # Read request sizes (log2)
system.mem_ctrl.writePktSize::0                     0                       # Write request sizes (log2)
system.mem_ctrl.writePktSize::1                     0                       # Write request sizes (log2)
system.mem_ctrl.writePktSize::2                     0                       # Write request sizes (log2)
system.mem_ctrl.writePktSize::3                     0                       # Write request sizes (log2)
system.mem_ctrl.writePktSize::4                     0                       # Write request sizes (log2)
system.mem_ctrl.writePktSize::5                     0                       # Write request sizes (log2)
system.mem_ctrl.writePktSize::6                   455                       # Write request sizes (log2)
system.mem_ctrl.rdQLenPdf::0                    65779                       # What read queue length does an incoming req see
system.mem_ctrl.rdQLenPdf::1                        0                       # What read queue length does an incoming req see
system.mem_ctrl.rdQLenPdf::2                        0                       # What read queue length does an incoming req see
system.mem_ctrl.rdQLenPdf::3                        0                       # What read queue length does an incoming req see
system.mem_ctrl.rdQLenPdf::4                        0                       # What read queue length does an incoming req see
system.mem_ctrl.rdQLenPdf::5                        0                       # What read queue length does an incoming req see
system.mem_ctrl.rdQLenPdf::6                        0                       # What read queue length does an incoming req see
system.mem_ctrl.rdQLenPdf::7                        0                       # What read queue length does an incoming req see
system.mem_ctrl.rdQLenPdf::8                        0                       # What read queue length does an incoming req see
system.mem_ctrl.rdQLenPdf::9                        0                       # What read queue length does an incoming req see
system.mem_ctrl.rdQLenPdf::10                       0                       # What read queue length does an incoming req see
system.mem_ctrl.rdQLenPdf::11                       0                       # What read queue length does an incoming req see
system.mem_ctrl.rdQLenPdf::12                       0                       # What read queue length does an incoming req see
system.mem_ctrl.rdQLenPdf::13                       0                       # What read queue length does an incoming req see
system.mem_ctrl.rdQLenPdf::14                       0                       # What read queue length does an incoming req see
system.mem_ctrl.rdQLenPdf::15                       0                       # What read queue length does an incoming req see
system.mem_ctrl.rdQLenPdf::16                       0                       # What read queue length does an incoming req see
system.mem_ctrl.rdQLenPdf::17                       0                       # What read queue length does an incoming req see
system.mem_ctrl.rdQLenPdf::18                       0                       # What read queue length does an incoming req see
system.mem_ctrl.rdQLenPdf::19                       0                       # What read queue length does an incoming req see
system.mem_ctrl.rdQLenPdf::20                       0                       # What read queue length does an incoming req see
system.mem_ctrl.rdQLenPdf::21                       0                       # What read queue length does an incoming req see
system.mem_ctrl.rdQLenPdf::22                       0                       # What read queue length does an incoming req see
system.mem_ctrl.rdQLenPdf::23                       0                       # What read queue length does an incoming req see
system.mem_ctrl.rdQLenPdf::24                       0                       # What read queue length does an incoming req see
system.mem_ctrl.rdQLenPdf::25                       0                       # What read queue length does an incoming req see
system.mem_ctrl.rdQLenPdf::26                       0                       # What read queue length does an incoming req see
system.mem_ctrl.rdQLenPdf::27                       0                       # What read queue length does an incoming req see
system.mem_ctrl.rdQLenPdf::28                       0                       # What read queue length does an incoming req see
system.mem_ctrl.rdQLenPdf::29                       0                       # What read queue length does an incoming req see
system.mem_ctrl.rdQLenPdf::30                       0                       # What read queue length does an incoming req see
system.mem_ctrl.rdQLenPdf::31                       0                       # What read queue length does an incoming req see
system.mem_ctrl.wrQLenPdf::0                        1                       # What write queue length does an incoming req see
system.mem_ctrl.wrQLenPdf::1                        1                       # What write queue length does an incoming req see
system.mem_ctrl.wrQLenPdf::2                        1                       # What write queue length does an incoming req see
system.mem_ctrl.wrQLenPdf::3                        1                       # What write queue length does an incoming req see
system.mem_ctrl.wrQLenPdf::4                        1                       # What write queue length does an incoming req see
system.mem_ctrl.wrQLenPdf::5                        1                       # What write queue length does an incoming req see
system.mem_ctrl.wrQLenPdf::6                        1                       # What write queue length does an incoming req see
system.mem_ctrl.wrQLenPdf::7                        1                       # What write queue length does an incoming req see
system.mem_ctrl.wrQLenPdf::8                        1                       # What write queue length does an incoming req see
system.mem_ctrl.wrQLenPdf::9                        1                       # What write queue length does an incoming req see
system.mem_ctrl.wrQLenPdf::10                       1                       # What write queue length does an incoming req see
system.mem_ctrl.wrQLenPdf::11                       1                       # What write queue length does an incoming req see
system.mem_ctrl.wrQLenPdf::12                       1                       # What write queue length does an incoming req see
system.mem_ctrl.wrQLenPdf::13                       1                       # What write queue length does an incoming req see
system.mem_ctrl.wrQLenPdf::14                       1                       # What write queue length does an incoming req see
system.mem_ctrl.wrQLenPdf::15                      13                       # What write queue length does an incoming req see
system.mem_ctrl.wrQLenPdf::16                      13                       # What write queue length does an incoming req see
system.mem_ctrl.wrQLenPdf::17                      23                       # What write queue length does an incoming req see
system.mem_ctrl.wrQLenPdf::18                      23                       # What write queue length does an incoming req see
system.mem_ctrl.wrQLenPdf::19                      23                       # What write queue length does an incoming req see
system.mem_ctrl.wrQLenPdf::20                      23                       # What write queue length does an incoming req see
system.mem_ctrl.wrQLenPdf::21                      23                       # What write queue length does an incoming req see
system.mem_ctrl.wrQLenPdf::22                      23                       # What write queue length does an incoming req see
system.mem_ctrl.wrQLenPdf::23                      23                       # What write queue length does an incoming req see
system.mem_ctrl.wrQLenPdf::24                      22                       # What write queue length does an incoming req see
system.mem_ctrl.wrQLenPdf::25                      22                       # What write queue length does an incoming req see
system.mem_ctrl.wrQLenPdf::26                      22                       # What write queue length does an incoming req see
system.mem_ctrl.wrQLenPdf::27                      22                       # What write queue length does an incoming req see
system.mem_ctrl.wrQLenPdf::28                      22                       # What write queue length does an incoming req see
system.mem_ctrl.wrQLenPdf::29                      22                       # What write queue length does an incoming req see
system.mem_ctrl.wrQLenPdf::30                      22                       # What write queue length does an incoming req see
system.mem_ctrl.wrQLenPdf::31                      22                       # What write queue length does an incoming req see
system.mem_ctrl.wrQLenPdf::32                      22                       # What write queue length does an incoming req see
system.mem_ctrl.wrQLenPdf::33                       0                       # What write queue length does an incoming req see
system.mem_ctrl.wrQLenPdf::34                       0                       # What write queue length does an incoming req see
system.mem_ctrl.wrQLenPdf::35                       0                       # What write queue length does an incoming req see
system.mem_ctrl.wrQLenPdf::36                       0                       # What write queue length does an incoming req see
system.mem_ctrl.wrQLenPdf::37                       0                       # What write queue length does an incoming req see
system.mem_ctrl.wrQLenPdf::38                       0                       # What write queue length does an incoming req see
system.mem_ctrl.wrQLenPdf::39                       0                       # What write queue length does an incoming req see
system.mem_ctrl.wrQLenPdf::40                       0                       # What write queue length does an incoming req see
system.mem_ctrl.wrQLenPdf::41                       0                       # What write queue length does an incoming req see
system.mem_ctrl.wrQLenPdf::42                       0                       # What write queue length does an incoming req see
system.mem_ctrl.wrQLenPdf::43                       0                       # What write queue length does an incoming req see
system.mem_ctrl.wrQLenPdf::44                       0                       # What write queue length does an incoming req see
system.mem_ctrl.wrQLenPdf::45                       0                       # What write queue length does an incoming req see
system.mem_ctrl.wrQLenPdf::46                       0                       # What write queue length does an incoming req see
system.mem_ctrl.wrQLenPdf::47                       0                       # What write queue length does an incoming req see
system.mem_ctrl.wrQLenPdf::48                       0                       # What write queue length does an incoming req see
system.mem_ctrl.wrQLenPdf::49                       0                       # What write queue length does an incoming req see
system.mem_ctrl.wrQLenPdf::50                       0                       # What write queue length does an incoming req see
system.mem_ctrl.wrQLenPdf::51                       0                       # What write queue length does an incoming req see
system.mem_ctrl.wrQLenPdf::52                       0                       # What write queue length does an incoming req see
system.mem_ctrl.wrQLenPdf::53                       0                       # What write queue length does an incoming req see
system.mem_ctrl.wrQLenPdf::54                       0                       # What write queue length does an incoming req see
system.mem_ctrl.wrQLenPdf::55                       0                       # What write queue length does an incoming req see
system.mem_ctrl.wrQLenPdf::56                       0                       # What write queue length does an incoming req see
system.mem_ctrl.wrQLenPdf::57                       0                       # What write queue length does an incoming req see
system.mem_ctrl.wrQLenPdf::58                       0                       # What write queue length does an incoming req see
system.mem_ctrl.wrQLenPdf::59                       0                       # What write queue length does an incoming req see
system.mem_ctrl.wrQLenPdf::60                       0                       # What write queue length does an incoming req see
system.mem_ctrl.wrQLenPdf::61                       0                       # What write queue length does an incoming req see
system.mem_ctrl.wrQLenPdf::62                       0                       # What write queue length does an incoming req see
system.mem_ctrl.wrQLenPdf::63                       0                       # What write queue length does an incoming req see
system.mem_ctrl.bytesPerActivate::samples         5477                       # Bytes accessed per row activation
system.mem_ctrl.bytesPerActivate::mean     772.849370                       # Bytes accessed per row activation
system.mem_ctrl.bytesPerActivate::gmean    648.520822                       # Bytes accessed per row activation
system.mem_ctrl.bytesPerActivate::stdev    291.808987                       # Bytes accessed per row activation
system.mem_ctrl.bytesPerActivate::0-127           318      5.81%      5.81% # Bytes accessed per row activation
system.mem_ctrl.bytesPerActivate::128-255          342      6.24%     12.05% # Bytes accessed per row activation
system.mem_ctrl.bytesPerActivate::256-383          206      3.76%     15.81% # Bytes accessed per row activation
system.mem_ctrl.bytesPerActivate::384-511          115      2.10%     17.91% # Bytes accessed per row activation
system.mem_ctrl.bytesPerActivate::512-639          180      3.29%     21.20% # Bytes accessed per row activation
system.mem_ctrl.bytesPerActivate::640-767          141      2.57%     23.77% # Bytes accessed per row activation
system.mem_ctrl.bytesPerActivate::768-895          164      2.99%     26.77% # Bytes accessed per row activation
system.mem_ctrl.bytesPerActivate::896-1023         3925     71.66%     98.43% # Bytes accessed per row activation
system.mem_ctrl.bytesPerActivate::1024-1151           86      1.57%    100.00% # Bytes accessed per row activation
system.mem_ctrl.bytesPerActivate::total          5477                       # Bytes accessed per row activation
system.mem_ctrl.rdPerTurnAround::samples           22                       # Reads before turning the bus around for writes
system.mem_ctrl.rdPerTurnAround::mean     2989.636364                       # Reads before turning the bus around for writes
system.mem_ctrl.rdPerTurnAround::gmean      41.393889                       # Reads before turning the bus around for writes
system.mem_ctrl.rdPerTurnAround::stdev   13022.504380                       # Reads before turning the bus around for writes
system.mem_ctrl.rdPerTurnAround::0-2047            20     90.91%     90.91% # Reads before turning the bus around for writes
system.mem_ctrl.rdPerTurnAround::2048-4095            1      4.55%     95.45% # Reads before turning the bus around for writes
system.mem_ctrl.rdPerTurnAround::59392-61439            1      4.55%    100.00% # Reads before turning the bus around for writes
system.mem_ctrl.rdPerTurnAround::total             22                       # Reads before turning the bus around for writes
system.mem_ctrl.wrPerTurnAround::samples           22                       # Writes before turning the bus around for reads
system.mem_ctrl.wrPerTurnAround::mean       17.090909                       # Writes before turning the bus around for reads
system.mem_ctrl.wrPerTurnAround::gmean      17.061663                       # Writes before turning the bus around for reads
system.mem_ctrl.wrPerTurnAround::stdev       1.019294                       # Writes before turning the bus around for reads
system.mem_ctrl.wrPerTurnAround::16                10     45.45%     45.45% # Writes before turning the bus around for reads
system.mem_ctrl.wrPerTurnAround::18                12     54.55%    100.00% # Writes before turning the bus around for reads
system.mem_ctrl.wrPerTurnAround::total             22                       # Writes before turning the bus around for reads
system.mem_ctrl.totQLat                     917024656                       # Total ticks spent queuing
system.mem_ctrl.totMemAccLat               2150380906                       # Total ticks spent from burst creation until serviced by the DRAM
system.mem_ctrl.totBusLat                   328895000                       # Total ticks spent in databus transfers
system.mem_ctrl.avgQLat                      13940.99                       # Average queueing delay per DRAM burst
system.mem_ctrl.avgBusLat                     5000.00                       # Average bus latency per DRAM burst
system.mem_ctrl.avgMemAccLat                 32690.99                       # Average memory access latency per DRAM burst
system.mem_ctrl.avgRdBW                         27.80                       # Average DRAM read bandwidth in MiByte/s
system.mem_ctrl.avgWrBW                          0.16                       # Average achieved write bandwidth in MiByte/s
system.mem_ctrl.avgRdBWSys                      27.83                       # Average system read bandwidth in MiByte/s
system.mem_ctrl.avgWrBWSys                       0.19                       # Average system write bandwidth in MiByte/s
system.mem_ctrl.peakBW                       12800.00                       # Theoretical peak bandwidth in MiByte/s
system.mem_ctrl.busUtil                          0.22                       # Data bus utilization in percentage
system.mem_ctrl.busUtilRead                      0.22                       # Data bus utilization in percentage for reads
system.mem_ctrl.busUtilWrite                     0.00                       # Data bus utilization in percentage for writes
system.mem_ctrl.avgRdQLen                        1.00                       # Average read queue length when enqueuing
system.mem_ctrl.avgWrQLen                       15.33                       # Average write queue length when enqueuing
system.mem_ctrl.readRowHits                     60376                       # Number of row buffer hits during reads
system.mem_ctrl.writeRowHits                      296                       # Number of row buffer hits during writes
system.mem_ctrl.readRowHitRate                  91.79                       # Row buffer hit rate for reads
system.mem_ctrl.writeRowHitRate                 74.00                       # Row buffer hit rate for writes
system.mem_ctrl.avgGap                     2284250.05                       # Average gap between requests
system.mem_ctrl.pageHitRate                     91.68                       # Row buffer hit rate, read and write combined
system.mem_ctrl_0.actEnergy                  20263320                       # Energy for activate commands per rank (pJ)
system.mem_ctrl_0.preEnergy                  10751235                       # Energy for precharge commands per rank (pJ)
system.mem_ctrl_0.readEnergy                239032920                       # Energy for read commands per rank (pJ)
system.mem_ctrl_0.writeEnergy                 1487700                       # Energy for write commands per rank (pJ)
system.mem_ctrl_0.refreshEnergy          1441945440.000000                       # Energy for refresh commands per rank (pJ)
system.mem_ctrl_0.actBackEnergy             668344950                       # Energy for active background per rank (pJ)
system.mem_ctrl_0.preBackEnergy              33561600                       # Energy for precharge background per rank (pJ)
system.mem_ctrl_0.actPowerDownEnergy       7280195040                       # Energy for active power-down per rank (pJ)
system.mem_ctrl_0.prePowerDownEnergy        189272640                       # Energy for precharge power-down per rank (pJ)
system.mem_ctrl_0.selfRefreshEnergy       32042514240                       # Energy for self refresh per rank (pJ)
system.mem_ctrl_0.totalEnergy             41927369085                       # Total energy per rank (pJ)
system.mem_ctrl_0.averagePower             276.859884                       # Core power per rank (mW)
system.mem_ctrl_0.totalIdleTime          149885381687                       # Total Idle time Per DRAM Rank
system.mem_ctrl_0.memoryStateTime::IDLE      23246591                       # Time in different power states
system.mem_ctrl_0.memoryStateTime::REF      610176000                       # Time in different power states
system.mem_ctrl_0.memoryStateTime::SREF  133427641882                       # Time in different power states
system.mem_ctrl_0.memoryStateTime::PRE_PDN    492906599                       # Time in different power states
system.mem_ctrl_0.memoryStateTime::ACT      919531787                       # Time in different power states
system.mem_ctrl_0.memoryStateTime::ACT_PDN  15965442773                       # Time in different power states
system.mem_ctrl_1.actEnergy                  18885300                       # Energy for activate commands per rank (pJ)
system.mem_ctrl_1.preEnergy                  10033980                       # Energy for precharge commands per rank (pJ)
system.mem_ctrl_1.readEnergy                230629140                       # Energy for read commands per rank (pJ)
system.mem_ctrl_1.writeEnergy                  475020                       # Energy for write commands per rank (pJ)
system.mem_ctrl_1.refreshEnergy          1405681680.000000                       # Energy for refresh commands per rank (pJ)
system.mem_ctrl_1.actBackEnergy             643191990                       # Energy for active background per rank (pJ)
system.mem_ctrl_1.preBackEnergy              35664000                       # Energy for precharge background per rank (pJ)
system.mem_ctrl_1.actPowerDownEnergy       7068020520                       # Energy for active power-down per rank (pJ)
system.mem_ctrl_1.prePowerDownEnergy        197410560                       # Energy for precharge power-down per rank (pJ)
system.mem_ctrl_1.selfRefreshEnergy       32163232200                       # Energy for self refresh per rank (pJ)
system.mem_ctrl_1.totalEnergy             41773224390                       # Total energy per rank (pJ)
system.mem_ctrl_1.averagePower             275.842017                       # Core power per rank (mW)
system.mem_ctrl_1.totalIdleTime          149935598679                       # Total Idle time Per DRAM Rank
system.mem_ctrl_1.memoryStateTime::IDLE      30524621                       # Time in different power states
system.mem_ctrl_1.memoryStateTime::REF      594866000                       # Time in different power states
system.mem_ctrl_1.memoryStateTime::SREF  133921429663                       # Time in different power states
system.mem_ctrl_1.memoryStateTime::PRE_PDN    514097760                       # Time in different power states
system.mem_ctrl_1.memoryStateTime::ACT      877911129                       # Time in different power states
system.mem_ctrl_1.memoryStateTime::ACT_PDN  15500116459                       # Time in different power states
system.pwrStateResidencyTicks::UNDEFINED 151438945632                       # Cumulative time (in ticks) in various power states
system.cpu.dtb.walker.pwrStateResidencyTicks::UNDEFINED 151438945632                       # Cumulative time (in ticks) in various power states
system.cpu.dtb.rdAccesses                    23854000                       # TLB accesses on read requests
system.cpu.dtb.wrAccesses                     7334621                       # TLB accesses on write requests
system.cpu.dtb.rdMisses                          1229                       # TLB misses on read requests
system.cpu.dtb.wrMisses                        116843                       # TLB misses on write requests
system.cpu.apic_clk_domain.clock                10672                       # Clock period in ticks
system.cpu.interrupts.pwrStateResidencyTicks::UNDEFINED 151438945632                       # Cumulative time (in ticks) in various power states
system.cpu.itb.walker.pwrStateResidencyTicks::UNDEFINED 151438945632                       # Cumulative time (in ticks) in various power states
system.cpu.itb.rdAccesses                           0                       # TLB accesses on read requests
system.cpu.itb.wrAccesses                    63318174                       # TLB accesses on write requests
system.cpu.itb.rdMisses                             0                       # TLB misses on read requests
system.cpu.itb.wrMisses                            89                       # TLB misses on write requests
system.cpu.workload.numSyscalls                    33                       # Number of system calls
system.cpu.pwrStateResidencyTicks::ON    151438945632                       # Cumulative time (in ticks) in various power states
system.cpu.numCycles                        227044896                       # number of cpu cycles simulated
system.cpu.numWorkItemsStarted                      0                       # number of work items this cpu started
system.cpu.numWorkItemsCompleted                    0                       # number of work items this cpu completed
system.cpu.committedInsts                    47700244                       # Number of instructions committed
system.cpu.committedOps                      82046706                       # Number of ops (including micro ops) committed
system.cpu.num_int_alu_accesses              82043407                       # Number of integer alu accesses
system.cpu.num_fp_alu_accesses                   3447                       # Number of float alu accesses
system.cpu.num_vec_alu_accesses                     0                       # Number of vector alu accesses
system.cpu.num_func_calls                        1358                       # number of times a function call or return occured
system.cpu.num_conditional_control_insts      5151277                       # number of instructions that are conditional controls
system.cpu.num_int_insts                     82043407                       # number of integer instructions
system.cpu.num_fp_insts                          3447                       # number of float instructions
system.cpu.num_vec_insts                            0                       # number of vector instructions
system.cpu.num_int_register_reads           173517092                       # number of times the integer registers were read
system.cpu.num_int_register_writes           69557594                       # number of times the integer registers were written
system.cpu.num_fp_register_reads                 5525                       # number of times the floating registers were read
system.cpu.num_fp_register_writes                2660                       # number of times the floating registers were written
system.cpu.num_vec_register_reads                   0                       # number of times the vector registers were read
system.cpu.num_vec_register_writes                  0                       # number of times the vector registers were written
system.cpu.num_cc_register_reads             26790677                       # number of times the CC registers were read
system.cpu.num_cc_register_writes            31250784                       # number of times the CC registers were written
system.cpu.num_mem_refs                      31188612                       # number of memory refs
system.cpu.num_load_insts                    23853991                       # Number of load instructions
system.cpu.num_store_insts                    7334621                       # Number of store instructions
system.cpu.num_idle_cycles                          0                       # Number of idle cycles
system.cpu.num_busy_cycles                  227044896                       # Number of busy cycles
system.cpu.not_idle_fraction                        1                       # Percentage of non-idle cycles
system.cpu.idle_fraction                            0                       # Percentage of idle cycles
system.cpu.Branches                           5154587                       # Number of branches fetched
system.cpu.op_class::No_OpClass                  1287      0.00%      0.00% # Class of executed instruction
system.cpu.op_class::IntAlu                  50852257     61.98%     61.98% # Class of executed instruction
system.cpu.op_class::IntMult                     1192      0.00%     61.98% # Class of executed instruction
system.cpu.op_class::IntDiv                      1131      0.00%     61.98% # Class of executed instruction
system.cpu.op_class::FloatAdd                    2227      0.00%     61.99% # Class of executed instruction
system.cpu.op_class::FloatCmp                       0      0.00%     61.99% # Class of executed instruction
system.cpu.op_class::FloatCvt                       0      0.00%     61.99% # Class of executed instruction
system.cpu.op_class::FloatMult                      0      0.00%     61.99% # Class of executed instruction
system.cpu.op_class::FloatMultAcc                   0      0.00%     61.99% # Class of executed instruction
system.cpu.op_class::FloatDiv                       0      0.00%     61.99% # Class of executed instruction
system.cpu.op_class::FloatMisc                      0      0.00%     61.99% # Class of executed instruction
system.cpu.op_class::FloatSqrt                      0      0.00%     61.99% # Class of executed instruction
system.cpu.op_class::SimdAdd                        0      0.00%     61.99% # Class of executed instruction
system.cpu.op_class::SimdAddAcc                     0      0.00%     61.99% # Class of executed instruction
system.cpu.op_class::SimdAlu                        0      0.00%     61.99% # Class of executed instruction
system.cpu.op_class::SimdCmp                        0      0.00%     61.99% # Class of executed instruction
system.cpu.op_class::SimdCvt                        0      0.00%     61.99% # Class of executed instruction
system.cpu.op_class::SimdMisc                       0      0.00%     61.99% # Class of executed instruction
system.cpu.op_class::SimdMult                       0      0.00%     61.99% # Class of executed instruction
system.cpu.op_class::SimdMultAcc                    0      0.00%     61.99% # Class of executed instruction
system.cpu.op_class::SimdShift                      0      0.00%     61.99% # Class of executed instruction
system.cpu.op_class::SimdShiftAcc                   0      0.00%     61.99% # Class of executed instruction
system.cpu.op_class::SimdSqrt                       0      0.00%     61.99% # Class of executed instruction
system.cpu.op_class::SimdFloatAdd                   0      0.00%     61.99% # Class of executed instruction
system.cpu.op_class::SimdFloatAlu                   0      0.00%     61.99% # Class of executed instruction
system.cpu.op_class::SimdFloatCmp                   0      0.00%     61.99% # Class of executed instruction
system.cpu.op_class::SimdFloatCvt                   0      0.00%     61.99% # Class of executed instruction
system.cpu.op_class::SimdFloatDiv                   0      0.00%     61.99% # Class of executed instruction
system.cpu.op_class::SimdFloatMisc                  0      0.00%     61.99% # Class of executed instruction
system.cpu.op_class::SimdFloatMult                  0      0.00%     61.99% # Class of executed instruction
system.cpu.op_class::SimdFloatMultAcc               0      0.00%     61.99% # Class of executed instruction
system.cpu.op_class::SimdFloatSqrt                  0      0.00%     61.99% # Class of executed instruction
system.cpu.op_class::MemRead                 23853209     29.07%     91.06% # Class of executed instruction
system.cpu.op_class::MemWrite                 7334237      8.94%    100.00% # Class of executed instruction
system.cpu.op_class::FloatMemRead                 782      0.00%    100.00% # Class of executed instruction
system.cpu.op_class::FloatMemWrite                384      0.00%    100.00% # Class of executed instruction
system.cpu.op_class::IprAccess                      0      0.00%    100.00% # Class of executed instruction
system.cpu.op_class::InstPrefetch                   0      0.00%    100.00% # Class of executed instruction
system.cpu.op_class::total                   82046706                       # Class of executed instruction
system.cpu.dcache.tags.pwrStateResidencyTicks::UNDEFINED 151438945632                       # Cumulative time (in ticks) in various power states
system.cpu.dcache.tags.replacements           1280470                       # number of replacements
system.cpu.dcache.tags.tagsinuse          2042.459368                       # Cycle average of tags in use
system.cpu.dcache.tags.total_refs            29906103                       # Total number of references to valid blocks.
system.cpu.dcache.tags.sampled_refs           1282518                       # Sample count of references to valid blocks.
system.cpu.dcache.tags.avg_refs             23.318272                       # Average number of references to valid blocks.
system.cpu.dcache.tags.warmup_cycle        1667594714                       # Cycle when the warmup percentage was hit.
system.cpu.dcache.tags.occ_blocks::cpu.data  2042.459368                       # Average occupied blocks per requestor
system.cpu.dcache.tags.occ_percent::cpu.data     0.997295                       # Average percentage of cache occupancy
system.cpu.dcache.tags.occ_percent::total     0.997295                       # Average percentage of cache occupancy
system.cpu.dcache.tags.occ_task_id_blocks::1024         2048                       # Occupied blocks per task id
system.cpu.dcache.tags.age_task_id_blocks_1024::0           33                       # Occupied blocks per task id
system.cpu.dcache.tags.age_task_id_blocks_1024::1          219                       # Occupied blocks per task id
system.cpu.dcache.tags.age_task_id_blocks_1024::2         1717                       # Occupied blocks per task id
system.cpu.dcache.tags.age_task_id_blocks_1024::3           79                       # Occupied blocks per task id
system.cpu.dcache.tags.occ_task_id_percent::1024            1                       # Percentage of cache occupancy per task id
system.cpu.dcache.tags.tag_accesses          32471139                       # Number of tag accesses
system.cpu.dcache.tags.data_accesses         32471139                       # Number of data accesses
system.cpu.dcache.pwrStateResidencyTicks::UNDEFINED 151438945632                       # Cumulative time (in ticks) in various power states
system.cpu.dcache.ReadReq_hits::cpu.data     23784255                       # number of ReadReq hits
system.cpu.dcache.ReadReq_hits::total        23784255                       # number of ReadReq hits
system.cpu.dcache.WriteReq_hits::cpu.data      6121848                       # number of WriteReq hits
system.cpu.dcache.WriteReq_hits::total        6121848                       # number of WriteReq hits
system.cpu.dcache.demand_hits::cpu.data      29906103                       # number of demand (read+write) hits
system.cpu.dcache.demand_hits::total         29906103                       # number of demand (read+write) hits
system.cpu.dcache.overall_hits::cpu.data     29906103                       # number of overall hits
system.cpu.dcache.overall_hits::total        29906103                       # number of overall hits
system.cpu.dcache.ReadReq_misses::cpu.data        69745                       # number of ReadReq misses
system.cpu.dcache.ReadReq_misses::total         69745                       # number of ReadReq misses
system.cpu.dcache.WriteReq_misses::cpu.data      1212773                       # number of WriteReq misses
system.cpu.dcache.WriteReq_misses::total      1212773                       # number of WriteReq misses
system.cpu.dcache.demand_misses::cpu.data      1282518                       # number of demand (read+write) misses
system.cpu.dcache.demand_misses::total        1282518                       # number of demand (read+write) misses
system.cpu.dcache.overall_misses::cpu.data      1282518                       # number of overall misses
system.cpu.dcache.overall_misses::total       1282518                       # number of overall misses
system.cpu.dcache.ReadReq_miss_latency::cpu.data   1351117888                       # number of ReadReq miss cycles
system.cpu.dcache.ReadReq_miss_latency::total   1351117888                       # number of ReadReq miss cycles
system.cpu.dcache.WriteReq_miss_latency::cpu.data  25650453484                       # number of WriteReq miss cycles
system.cpu.dcache.WriteReq_miss_latency::total  25650453484                       # number of WriteReq miss cycles
system.cpu.dcache.demand_miss_latency::cpu.data  27001571372                       # number of demand (read+write) miss cycles
system.cpu.dcache.demand_miss_latency::total  27001571372                       # number of demand (read+write) miss cycles
system.cpu.dcache.overall_miss_latency::cpu.data  27001571372                       # number of overall miss cycles
system.cpu.dcache.overall_miss_latency::total  27001571372                       # number of overall miss cycles
system.cpu.dcache.ReadReq_accesses::cpu.data     23854000                       # number of ReadReq accesses(hits+misses)
system.cpu.dcache.ReadReq_accesses::total     23854000                       # number of ReadReq accesses(hits+misses)
system.cpu.dcache.WriteReq_accesses::cpu.data      7334621                       # number of WriteReq accesses(hits+misses)
system.cpu.dcache.WriteReq_accesses::total      7334621                       # number of WriteReq accesses(hits+misses)
system.cpu.dcache.demand_accesses::cpu.data     31188621                       # number of demand (read+write) accesses
system.cpu.dcache.demand_accesses::total     31188621                       # number of demand (read+write) accesses
system.cpu.dcache.overall_accesses::cpu.data     31188621                       # number of overall (read+write) accesses
system.cpu.dcache.overall_accesses::total     31188621                       # number of overall (read+write) accesses
system.cpu.dcache.ReadReq_miss_rate::cpu.data     0.002924                       # miss rate for ReadReq accesses
system.cpu.dcache.ReadReq_miss_rate::total     0.002924                       # miss rate for ReadReq accesses
system.cpu.dcache.WriteReq_miss_rate::cpu.data     0.165349                       # miss rate for WriteReq accesses
system.cpu.dcache.WriteReq_miss_rate::total     0.165349                       # miss rate for WriteReq accesses
system.cpu.dcache.demand_miss_rate::cpu.data     0.041121                       # miss rate for demand accesses
system.cpu.dcache.demand_miss_rate::total     0.041121                       # miss rate for demand accesses
system.cpu.dcache.overall_miss_rate::cpu.data     0.041121                       # miss rate for overall accesses
system.cpu.dcache.overall_miss_rate::total     0.041121                       # miss rate for overall accesses
system.cpu.dcache.ReadReq_avg_miss_latency::cpu.data 19372.254470                       # average ReadReq miss latency
system.cpu.dcache.ReadReq_avg_miss_latency::total 19372.254470                       # average ReadReq miss latency
system.cpu.dcache.WriteReq_avg_miss_latency::cpu.data 21150.251106                       # average WriteReq miss latency
system.cpu.dcache.WriteReq_avg_miss_latency::total 21150.251106                       # average WriteReq miss latency
system.cpu.dcache.demand_avg_miss_latency::cpu.data 21053.561332                       # average overall miss latency
system.cpu.dcache.demand_avg_miss_latency::total 21053.561332                       # average overall miss latency
system.cpu.dcache.overall_avg_miss_latency::cpu.data 21053.561332                       # average overall miss latency
system.cpu.dcache.overall_avg_miss_latency::total 21053.561332                       # average overall miss latency
system.cpu.dcache.blocked_cycles::no_mshrs            0                       # number of cycles access was blocked
system.cpu.dcache.blocked_cycles::no_targets            0                       # number of cycles access was blocked
system.cpu.dcache.blocked::no_mshrs                 0                       # number of cycles access was blocked
system.cpu.dcache.blocked::no_targets               0                       # number of cycles access was blocked
system.cpu.dcache.avg_blocked_cycles::no_mshrs          nan                       # average number of cycles each access was blocked
system.cpu.dcache.avg_blocked_cycles::no_targets          nan                       # average number of cycles each access was blocked
system.cpu.dcache.writebacks::writebacks      1276478                       # number of writebacks
system.cpu.dcache.writebacks::total           1276478                       # number of writebacks
system.cpu.dcache.ReadReq_mshr_misses::cpu.data        69745                       # number of ReadReq MSHR misses
system.cpu.dcache.ReadReq_mshr_misses::total        69745                       # number of ReadReq MSHR misses
system.cpu.dcache.WriteReq_mshr_misses::cpu.data      1212773                       # number of WriteReq MSHR misses
system.cpu.dcache.WriteReq_mshr_misses::total      1212773                       # number of WriteReq MSHR misses
system.cpu.dcache.demand_mshr_misses::cpu.data      1282518                       # number of demand (read+write) MSHR misses
system.cpu.dcache.demand_mshr_misses::total      1282518                       # number of demand (read+write) MSHR misses
system.cpu.dcache.overall_mshr_misses::cpu.data      1282518                       # number of overall MSHR misses
system.cpu.dcache.overall_mshr_misses::total      1282518                       # number of overall MSHR misses
system.cpu.dcache.ReadReq_mshr_miss_latency::cpu.data   1258078058                       # number of ReadReq MSHR miss cycles
system.cpu.dcache.ReadReq_mshr_miss_latency::total   1258078058                       # number of ReadReq MSHR miss cycles
system.cpu.dcache.WriteReq_mshr_miss_latency::cpu.data  24032614302                       # number of WriteReq MSHR miss cycles
system.cpu.dcache.WriteReq_mshr_miss_latency::total  24032614302                       # number of WriteReq MSHR miss cycles
system.cpu.dcache.demand_mshr_miss_latency::cpu.data  25290692360                       # number of demand (read+write) MSHR miss cycles
system.cpu.dcache.demand_mshr_miss_latency::total  25290692360                       # number of demand (read+write) MSHR miss cycles
system.cpu.dcache.overall_mshr_miss_latency::cpu.data  25290692360                       # number of overall MSHR miss cycles
system.cpu.dcache.overall_mshr_miss_latency::total  25290692360                       # number of overall MSHR miss cycles
system.cpu.dcache.ReadReq_mshr_miss_rate::cpu.data     0.002924                       # mshr miss rate for ReadReq accesses
system.cpu.dcache.ReadReq_mshr_miss_rate::total     0.002924                       # mshr miss rate for ReadReq accesses
system.cpu.dcache.WriteReq_mshr_miss_rate::cpu.data     0.165349                       # mshr miss rate for WriteReq accesses
system.cpu.dcache.WriteReq_mshr_miss_rate::total     0.165349                       # mshr miss rate for WriteReq accesses
system.cpu.dcache.demand_mshr_miss_rate::cpu.data     0.041121                       # mshr miss rate for demand accesses
system.cpu.dcache.demand_mshr_miss_rate::total     0.041121                       # mshr miss rate for demand accesses
system.cpu.dcache.overall_mshr_miss_rate::cpu.data     0.041121                       # mshr miss rate for overall accesses
system.cpu.dcache.overall_mshr_miss_rate::total     0.041121                       # mshr miss rate for overall accesses
system.cpu.dcache.ReadReq_avg_mshr_miss_latency::cpu.data 18038.254470                       # average ReadReq mshr miss latency
system.cpu.dcache.ReadReq_avg_mshr_miss_latency::total 18038.254470                       # average ReadReq mshr miss latency
system.cpu.dcache.WriteReq_avg_mshr_miss_latency::cpu.data 19816.251106                       # average WriteReq mshr miss latency
system.cpu.dcache.WriteReq_avg_mshr_miss_latency::total 19816.251106                       # average WriteReq mshr miss latency
system.cpu.dcache.demand_avg_mshr_miss_latency::cpu.data 19719.561332                       # average overall mshr miss latency
system.cpu.dcache.demand_avg_mshr_miss_latency::total 19719.561332                       # average overall mshr miss latency
system.cpu.dcache.overall_avg_mshr_miss_latency::cpu.data 19719.561332                       # average overall mshr miss latency
system.cpu.dcache.overall_avg_mshr_miss_latency::total 19719.561332                       # average overall mshr miss latency
system.cpu.icache.tags.pwrStateResidencyTicks::UNDEFINED 151438945632                       # Cumulative time (in ticks) in various power states
system.cpu.icache.tags.replacements               232                       # number of replacements
system.cpu.icache.tags.tagsinuse           576.271978                       # Cycle average of tags in use
system.cpu.icache.tags.total_refs            63317288                       # Total number of references to valid blocks.
system.cpu.icache.tags.sampled_refs               886                       # Sample count of references to valid blocks.
system.cpu.icache.tags.avg_refs          71464.207675                       # Average number of references to valid blocks.
system.cpu.icache.tags.warmup_cycle                 0                       # Cycle when the warmup percentage was hit.
system.cpu.icache.tags.occ_blocks::cpu.inst   576.271978                       # Average occupied blocks per requestor
system.cpu.icache.tags.occ_percent::cpu.inst     0.562766                       # Average percentage of cache occupancy
system.cpu.icache.tags.occ_percent::total     0.562766                       # Average percentage of cache occupancy
system.cpu.icache.tags.occ_task_id_blocks::1024          654                       # Occupied blocks per task id
system.cpu.icache.tags.age_task_id_blocks_1024::0           59                       # Occupied blocks per task id
system.cpu.icache.tags.age_task_id_blocks_1024::1          106                       # Occupied blocks per task id
system.cpu.icache.tags.age_task_id_blocks_1024::4          489                       # Occupied blocks per task id
system.cpu.icache.tags.occ_task_id_percent::1024     0.638672                       # Percentage of cache occupancy per task id
system.cpu.icache.tags.tag_accesses          63319060                       # Number of tag accesses
system.cpu.icache.tags.data_accesses         63319060                       # Number of data accesses
system.cpu.icache.pwrStateResidencyTicks::UNDEFINED 151438945632                       # Cumulative time (in ticks) in various power states
system.cpu.icache.ReadReq_hits::cpu.inst     63317288                       # number of ReadReq hits
system.cpu.icache.ReadReq_hits::total        63317288                       # number of ReadReq hits
system.cpu.icache.demand_hits::cpu.inst      63317288                       # number of demand (read+write) hits
system.cpu.icache.demand_hits::total         63317288                       # number of demand (read+write) hits
system.cpu.icache.overall_hits::cpu.inst     63317288                       # number of overall hits
system.cpu.icache.overall_hits::total        63317288                       # number of overall hits
system.cpu.icache.ReadReq_misses::cpu.inst          886                       # number of ReadReq misses
system.cpu.icache.ReadReq_misses::total           886                       # number of ReadReq misses
system.cpu.icache.demand_misses::cpu.inst          886                       # number of demand (read+write) misses
system.cpu.icache.demand_misses::total            886                       # number of demand (read+write) misses
system.cpu.icache.overall_misses::cpu.inst          886                       # number of overall misses
system.cpu.icache.overall_misses::total           886                       # number of overall misses
system.cpu.icache.ReadReq_miss_latency::cpu.inst     77380671                       # number of ReadReq miss cycles
system.cpu.icache.ReadReq_miss_latency::total     77380671                       # number of ReadReq miss cycles
system.cpu.icache.demand_miss_latency::cpu.inst     77380671                       # number of demand (read+write) miss cycles
system.cpu.icache.demand_miss_latency::total     77380671                       # number of demand (read+write) miss cycles
system.cpu.icache.overall_miss_latency::cpu.inst     77380671                       # number of overall miss cycles
system.cpu.icache.overall_miss_latency::total     77380671                       # number of overall miss cycles
system.cpu.icache.ReadReq_accesses::cpu.inst     63318174                       # number of ReadReq accesses(hits+misses)
system.cpu.icache.ReadReq_accesses::total     63318174                       # number of ReadReq accesses(hits+misses)
system.cpu.icache.demand_accesses::cpu.inst     63318174                       # number of demand (read+write) accesses
system.cpu.icache.demand_accesses::total     63318174                       # number of demand (read+write) accesses
system.cpu.icache.overall_accesses::cpu.inst     63318174                       # number of overall (read+write) accesses
system.cpu.icache.overall_accesses::total     63318174                       # number of overall (read+write) accesses
system.cpu.icache.ReadReq_miss_rate::cpu.inst     0.000014                       # miss rate for ReadReq accesses
system.cpu.icache.ReadReq_miss_rate::total     0.000014                       # miss rate for ReadReq accesses
system.cpu.icache.demand_miss_rate::cpu.inst     0.000014                       # miss rate for demand accesses
system.cpu.icache.demand_miss_rate::total     0.000014                       # miss rate for demand accesses
system.cpu.icache.overall_miss_rate::cpu.inst     0.000014                       # miss rate for overall accesses
system.cpu.icache.overall_miss_rate::total     0.000014                       # miss rate for overall accesses
system.cpu.icache.ReadReq_avg_miss_latency::cpu.inst 87337.100451                       # average ReadReq miss latency
system.cpu.icache.ReadReq_avg_miss_latency::total 87337.100451                       # average ReadReq miss latency
system.cpu.icache.demand_avg_miss_latency::cpu.inst 87337.100451                       # average overall miss latency
system.cpu.icache.demand_avg_miss_latency::total 87337.100451                       # average overall miss latency
system.cpu.icache.overall_avg_miss_latency::cpu.inst 87337.100451                       # average overall miss latency
system.cpu.icache.overall_avg_miss_latency::total 87337.100451                       # average overall miss latency
system.cpu.icache.blocked_cycles::no_mshrs            0                       # number of cycles access was blocked
system.cpu.icache.blocked_cycles::no_targets            0                       # number of cycles access was blocked
system.cpu.icache.blocked::no_mshrs                 0                       # number of cycles access was blocked
system.cpu.icache.blocked::no_targets               0                       # number of cycles access was blocked
system.cpu.icache.avg_blocked_cycles::no_mshrs          nan                       # average number of cycles each access was blocked
system.cpu.icache.avg_blocked_cycles::no_targets          nan                       # average number of cycles each access was blocked
system.cpu.icache.ReadReq_mshr_misses::cpu.inst          886                       # number of ReadReq MSHR misses
system.cpu.icache.ReadReq_mshr_misses::total          886                       # number of ReadReq MSHR misses
system.cpu.icache.demand_mshr_misses::cpu.inst          886                       # number of demand (read+write) MSHR misses
system.cpu.icache.demand_mshr_misses::total          886                       # number of demand (read+write) MSHR misses
system.cpu.icache.overall_mshr_misses::cpu.inst          886                       # number of overall MSHR misses
system.cpu.icache.overall_mshr_misses::total          886                       # number of overall MSHR misses
system.cpu.icache.ReadReq_mshr_miss_latency::cpu.inst     76198747                       # number of ReadReq MSHR miss cycles
system.cpu.icache.ReadReq_mshr_miss_latency::total     76198747                       # number of ReadReq MSHR miss cycles
system.cpu.icache.demand_mshr_miss_latency::cpu.inst     76198747                       # number of demand (read+write) MSHR miss cycles
system.cpu.icache.demand_mshr_miss_latency::total     76198747                       # number of demand (read+write) MSHR miss cycles
system.cpu.icache.overall_mshr_miss_latency::cpu.inst     76198747                       # number of overall MSHR miss cycles
system.cpu.icache.overall_mshr_miss_latency::total     76198747                       # number of overall MSHR miss cycles
system.cpu.icache.ReadReq_mshr_miss_rate::cpu.inst     0.000014                       # mshr miss rate for ReadReq accesses
system.cpu.icache.ReadReq_mshr_miss_rate::total     0.000014                       # mshr miss rate for ReadReq accesses
system.cpu.icache.demand_mshr_miss_rate::cpu.inst     0.000014                       # mshr miss rate for demand accesses
system.cpu.icache.demand_mshr_miss_rate::total     0.000014                       # mshr miss rate for demand accesses
system.cpu.icache.overall_mshr_miss_rate::cpu.inst     0.000014                       # mshr miss rate for overall accesses
system.cpu.icache.overall_mshr_miss_rate::total     0.000014                       # mshr miss rate for overall accesses
system.cpu.icache.ReadReq_avg_mshr_miss_latency::cpu.inst 86003.100451                       # average ReadReq mshr miss latency
system.cpu.icache.ReadReq_avg_mshr_miss_latency::total 86003.100451                       # average ReadReq mshr miss latency
system.cpu.icache.demand_avg_mshr_miss_latency::cpu.inst 86003.100451                       # average overall mshr miss latency
system.cpu.icache.demand_avg_mshr_miss_latency::total 86003.100451                       # average overall mshr miss latency
system.cpu.icache.overall_avg_mshr_miss_latency::cpu.inst 86003.100451                       # average overall mshr miss latency
system.cpu.icache.overall_avg_mshr_miss_latency::total 86003.100451                       # average overall mshr miss latency
system.l2bus.snoop_filter.tot_requests        2564106                       # Total number of requests made to the snoop filter.
system.l2bus.snoop_filter.hit_single_requests      1280703                       # Number of requests hitting in the snoop filter with a single holder of the requested data.
system.l2bus.snoop_filter.hit_multi_requests            2                       # Number of requests hitting in the snoop filter with multiple (>1) holders of the requested data.
system.l2bus.snoop_filter.tot_snoops              238                       # Total number of snoops made to the snoop filter.
system.l2bus.snoop_filter.hit_single_snoops          238                       # Number of snoops hitting in the snoop filter with a single holder of the requested data.
system.l2bus.snoop_filter.hit_multi_snoops            0                       # Number of snoops hitting in the snoop filter with multiple (>1) holders of the requested data.
system.l2bus.pwrStateResidencyTicks::UNDEFINED 151438945632                       # Cumulative time (in ticks) in various power states
system.l2bus.trans_dist::ReadResp               70631                       # Transaction distribution
system.l2bus.trans_dist::WritebackDirty       1276933                       # Transaction distribution
system.l2bus.trans_dist::CleanEvict              6254                       # Transaction distribution
system.l2bus.trans_dist::ReadExReq            1212773                       # Transaction distribution
system.l2bus.trans_dist::ReadExResp           1212773                       # Transaction distribution
system.l2bus.trans_dist::ReadSharedReq          70631                       # Transaction distribution
system.l2bus.pkt_count_system.cpu.icache.mem_side::system.l2cache.cpu_side         2004                       # Packet count per connected master and slave (bytes)
system.l2bus.pkt_count_system.cpu.dcache.mem_side::system.l2cache.cpu_side      3845506                       # Packet count per connected master and slave (bytes)
system.l2bus.pkt_count::total                 3847510                       # Packet count per connected master and slave (bytes)
system.l2bus.pkt_size_system.cpu.icache.mem_side::system.l2cache.cpu_side        56704                       # Cumulative packet size per connected master and slave (bytes)
system.l2bus.pkt_size_system.cpu.dcache.mem_side::system.l2cache.cpu_side    163775744                       # Cumulative packet size per connected master and slave (bytes)
system.l2bus.pkt_size::total                163832448                       # Cumulative packet size per connected master and slave (bytes)
system.l2bus.snoops                              2485                       # Total snoops (count)
system.l2bus.snoopTraffic                       29120                       # Total snoop traffic (bytes)
system.l2bus.snoop_fanout::samples            1285889                       # Request fanout histogram
system.l2bus.snoop_fanout::mean              0.000187                       # Request fanout histogram
system.l2bus.snoop_fanout::stdev             0.013689                       # Request fanout histogram
system.l2bus.snoop_fanout::underflows               0      0.00%      0.00% # Request fanout histogram
system.l2bus.snoop_fanout::0                  1285648     99.98%     99.98% # Request fanout histogram
system.l2bus.snoop_fanout::1                      241      0.02%    100.00% # Request fanout histogram
system.l2bus.snoop_fanout::2                        0      0.00%    100.00% # Request fanout histogram
system.l2bus.snoop_fanout::overflows                0      0.00%    100.00% # Request fanout histogram
system.l2bus.snoop_fanout::min_value                0                       # Request fanout histogram
system.l2bus.snoop_fanout::max_value                1                       # Request fanout histogram
system.l2bus.snoop_fanout::total              1285889                       # Request fanout histogram
system.l2bus.reqLayer0.occupancy           3413080354                       # Layer occupancy (ticks)
system.l2bus.reqLayer0.utilization                2.3                       # Layer utilization (%)
system.l2bus.respLayer0.occupancy             1772886                       # Layer occupancy (ticks)
system.l2bus.respLayer0.utilization               0.0                       # Layer utilization (%)
system.l2bus.respLayer1.occupancy          2566318518                       # Layer occupancy (ticks)
system.l2bus.respLayer1.utilization               1.7                       # Layer utilization (%)
system.l2cache.tags.pwrStateResidencyTicks::UNDEFINED 151438945632                       # Cumulative time (in ticks) in various power states
system.l2cache.tags.replacements                 2485                       # number of replacements
system.l2cache.tags.tagsinuse            56628.360000                       # Cycle average of tags in use
system.l2cache.tags.total_refs                2498226                       # Total number of references to valid blocks.
system.l2cache.tags.sampled_refs                65842                       # Sample count of references to valid blocks.
system.l2cache.tags.avg_refs                37.942742                       # Average number of references to valid blocks.
system.l2cache.tags.warmup_cycle                    0                       # Cycle when the warmup percentage was hit.
system.l2cache.tags.occ_blocks::cpu.inst   472.298875                       # Average occupied blocks per requestor
system.l2cache.tags.occ_blocks::cpu.data 56156.061124                       # Average occupied blocks per requestor
system.l2cache.tags.occ_percent::cpu.inst     0.007207                       # Average percentage of cache occupancy
system.l2cache.tags.occ_percent::cpu.data     0.856873                       # Average percentage of cache occupancy
system.l2cache.tags.occ_percent::total       0.864080                       # Average percentage of cache occupancy
system.l2cache.tags.occ_task_id_blocks::1024        63357                       # Occupied blocks per task id
system.l2cache.tags.age_task_id_blocks_1024::0           81                       # Occupied blocks per task id
system.l2cache.tags.age_task_id_blocks_1024::1          187                       # Occupied blocks per task id
system.l2cache.tags.age_task_id_blocks_1024::3            2                       # Occupied blocks per task id
system.l2cache.tags.age_task_id_blocks_1024::4        63087                       # Occupied blocks per task id
system.l2cache.tags.occ_task_id_percent::1024     0.966751                       # Percentage of cache occupancy per task id
system.l2cache.tags.tag_accesses             20578674                       # Number of tag accesses
system.l2cache.tags.data_accesses            20578674                       # Number of data accesses
system.l2cache.pwrStateResidencyTicks::UNDEFINED 151438945632                       # Cumulative time (in ticks) in various power states
system.l2cache.WritebackDirty_hits::writebacks      1276478                       # number of WritebackDirty hits
system.l2cache.WritebackDirty_hits::total      1276478                       # number of WritebackDirty hits
system.l2cache.ReadExReq_hits::cpu.data       1149706                       # number of ReadExReq hits
system.l2cache.ReadExReq_hits::total          1149706                       # number of ReadExReq hits
system.l2cache.ReadSharedReq_hits::cpu.inst           35                       # number of ReadSharedReq hits
system.l2cache.ReadSharedReq_hits::cpu.data        67821                       # number of ReadSharedReq hits
system.l2cache.ReadSharedReq_hits::total        67856                       # number of ReadSharedReq hits
system.l2cache.demand_hits::cpu.inst               35                       # number of demand (read+write) hits
system.l2cache.demand_hits::cpu.data          1217527                       # number of demand (read+write) hits
system.l2cache.demand_hits::total             1217562                       # number of demand (read+write) hits
system.l2cache.overall_hits::cpu.inst              35                       # number of overall hits
system.l2cache.overall_hits::cpu.data         1217527                       # number of overall hits
system.l2cache.overall_hits::total            1217562                       # number of overall hits
system.l2cache.ReadExReq_misses::cpu.data        63067                       # number of ReadExReq misses
system.l2cache.ReadExReq_misses::total          63067                       # number of ReadExReq misses
system.l2cache.ReadSharedReq_misses::cpu.inst          851                       # number of ReadSharedReq misses
system.l2cache.ReadSharedReq_misses::cpu.data         1924                       # number of ReadSharedReq misses
system.l2cache.ReadSharedReq_misses::total         2775                       # number of ReadSharedReq misses
system.l2cache.demand_misses::cpu.inst            851                       # number of demand (read+write) misses
system.l2cache.demand_misses::cpu.data          64991                       # number of demand (read+write) misses
system.l2cache.demand_misses::total             65842                       # number of demand (read+write) misses
system.l2cache.overall_misses::cpu.inst           851                       # number of overall misses
system.l2cache.overall_misses::cpu.data         64991                       # number of overall misses
system.l2cache.overall_misses::total            65842                       # number of overall misses
system.l2cache.ReadExReq_miss_latency::cpu.data   5501923587                       # number of ReadExReq miss cycles
system.l2cache.ReadExReq_miss_latency::total   5501923587                       # number of ReadExReq miss cycles
system.l2cache.ReadSharedReq_miss_latency::cpu.inst     73929613                       # number of ReadSharedReq miss cycles
system.l2cache.ReadSharedReq_miss_latency::cpu.data    168548232                       # number of ReadSharedReq miss cycles
system.l2cache.ReadSharedReq_miss_latency::total    242477845                       # number of ReadSharedReq miss cycles
system.l2cache.demand_miss_latency::cpu.inst     73929613                       # number of demand (read+write) miss cycles
system.l2cache.demand_miss_latency::cpu.data   5670471819                       # number of demand (read+write) miss cycles
system.l2cache.demand_miss_latency::total   5744401432                       # number of demand (read+write) miss cycles
system.l2cache.overall_miss_latency::cpu.inst     73929613                       # number of overall miss cycles
system.l2cache.overall_miss_latency::cpu.data   5670471819                       # number of overall miss cycles
system.l2cache.overall_miss_latency::total   5744401432                       # number of overall miss cycles
system.l2cache.WritebackDirty_accesses::writebacks      1276478                       # number of WritebackDirty accesses(hits+misses)
system.l2cache.WritebackDirty_accesses::total      1276478                       # number of WritebackDirty accesses(hits+misses)
system.l2cache.ReadExReq_accesses::cpu.data      1212773                       # number of ReadExReq accesses(hits+misses)
system.l2cache.ReadExReq_accesses::total      1212773                       # number of ReadExReq accesses(hits+misses)
system.l2cache.ReadSharedReq_accesses::cpu.inst          886                       # number of ReadSharedReq accesses(hits+misses)
system.l2cache.ReadSharedReq_accesses::cpu.data        69745                       # number of ReadSharedReq accesses(hits+misses)
system.l2cache.ReadSharedReq_accesses::total        70631                       # number of ReadSharedReq accesses(hits+misses)
system.l2cache.demand_accesses::cpu.inst          886                       # number of demand (read+write) accesses
system.l2cache.demand_accesses::cpu.data      1282518                       # number of demand (read+write) accesses
system.l2cache.demand_accesses::total         1283404                       # number of demand (read+write) accesses
system.l2cache.overall_accesses::cpu.inst          886                       # number of overall (read+write) accesses
system.l2cache.overall_accesses::cpu.data      1282518                       # number of overall (read+write) accesses
system.l2cache.overall_accesses::total        1283404                       # number of overall (read+write) accesses
system.l2cache.ReadExReq_miss_rate::cpu.data     0.052002                       # miss rate for ReadExReq accesses
system.l2cache.ReadExReq_miss_rate::total     0.052002                       # miss rate for ReadExReq accesses
system.l2cache.ReadSharedReq_miss_rate::cpu.inst     0.960497                       # miss rate for ReadSharedReq accesses
system.l2cache.ReadSharedReq_miss_rate::cpu.data     0.027586                       # miss rate for ReadSharedReq accesses
system.l2cache.ReadSharedReq_miss_rate::total     0.039289                       # miss rate for ReadSharedReq accesses
system.l2cache.demand_miss_rate::cpu.inst     0.960497                       # miss rate for demand accesses
system.l2cache.demand_miss_rate::cpu.data     0.050675                       # miss rate for demand accesses
system.l2cache.demand_miss_rate::total       0.051303                       # miss rate for demand accesses
system.l2cache.overall_miss_rate::cpu.inst     0.960497                       # miss rate for overall accesses
system.l2cache.overall_miss_rate::cpu.data     0.050675                       # miss rate for overall accesses
system.l2cache.overall_miss_rate::total      0.051303                       # miss rate for overall accesses
system.l2cache.ReadExReq_avg_miss_latency::cpu.data 87239.342081                       # average ReadExReq miss latency
system.l2cache.ReadExReq_avg_miss_latency::total 87239.342081                       # average ReadExReq miss latency
system.l2cache.ReadSharedReq_avg_miss_latency::cpu.inst 86873.810811                       # average ReadSharedReq miss latency
system.l2cache.ReadSharedReq_avg_miss_latency::cpu.data 87603.031185                       # average ReadSharedReq miss latency
system.l2cache.ReadSharedReq_avg_miss_latency::total 87379.403604                       # average ReadSharedReq miss latency
system.l2cache.demand_avg_miss_latency::cpu.inst 86873.810811                       # average overall miss latency
system.l2cache.demand_avg_miss_latency::cpu.data 87250.108769                       # average overall miss latency
system.l2cache.demand_avg_miss_latency::total 87245.245163                       # average overall miss latency
system.l2cache.overall_avg_miss_latency::cpu.inst 86873.810811                       # average overall miss latency
system.l2cache.overall_avg_miss_latency::cpu.data 87250.108769                       # average overall miss latency
system.l2cache.overall_avg_miss_latency::total 87245.245163                       # average overall miss latency
system.l2cache.blocked_cycles::no_mshrs             0                       # number of cycles access was blocked
system.l2cache.blocked_cycles::no_targets            0                       # number of cycles access was blocked
system.l2cache.blocked::no_mshrs                    0                       # number of cycles access was blocked
system.l2cache.blocked::no_targets                  0                       # number of cycles access was blocked
system.l2cache.avg_blocked_cycles::no_mshrs          nan                       # average number of cycles each access was blocked
system.l2cache.avg_blocked_cycles::no_targets          nan                       # average number of cycles each access was blocked
system.l2cache.writebacks::writebacks             455                       # number of writebacks
system.l2cache.writebacks::total                  455                       # number of writebacks
system.l2cache.CleanEvict_mshr_misses::writebacks           36                       # number of CleanEvict MSHR misses
system.l2cache.CleanEvict_mshr_misses::total           36                       # number of CleanEvict MSHR misses
system.l2cache.ReadExReq_mshr_misses::cpu.data        63067                       # number of ReadExReq MSHR misses
system.l2cache.ReadExReq_mshr_misses::total        63067                       # number of ReadExReq MSHR misses
system.l2cache.ReadSharedReq_mshr_misses::cpu.inst          851                       # number of ReadSharedReq MSHR misses
system.l2cache.ReadSharedReq_mshr_misses::cpu.data         1924                       # number of ReadSharedReq MSHR misses
system.l2cache.ReadSharedReq_mshr_misses::total         2775                       # number of ReadSharedReq MSHR misses
system.l2cache.demand_mshr_misses::cpu.inst          851                       # number of demand (read+write) MSHR misses
system.l2cache.demand_mshr_misses::cpu.data        64991                       # number of demand (read+write) MSHR misses
system.l2cache.demand_mshr_misses::total        65842                       # number of demand (read+write) MSHR misses
system.l2cache.overall_mshr_misses::cpu.inst          851                       # number of overall MSHR misses
system.l2cache.overall_mshr_misses::cpu.data        64991                       # number of overall MSHR misses
system.l2cache.overall_mshr_misses::total        65842                       # number of overall MSHR misses
system.l2cache.ReadExReq_mshr_miss_latency::cpu.data   4660609807                       # number of ReadExReq MSHR miss cycles
system.l2cache.ReadExReq_mshr_miss_latency::total   4660609807                       # number of ReadExReq MSHR miss cycles
system.l2cache.ReadSharedReq_mshr_miss_latency::cpu.inst     62577273                       # number of ReadSharedReq MSHR miss cycles
system.l2cache.ReadSharedReq_mshr_miss_latency::cpu.data    142882072                       # number of ReadSharedReq MSHR miss cycles
system.l2cache.ReadSharedReq_mshr_miss_latency::total    205459345                       # number of ReadSharedReq MSHR miss cycles
system.l2cache.demand_mshr_miss_latency::cpu.inst     62577273                       # number of demand (read+write) MSHR miss cycles
system.l2cache.demand_mshr_miss_latency::cpu.data   4803491879                       # number of demand (read+write) MSHR miss cycles
system.l2cache.demand_mshr_miss_latency::total   4866069152                       # number of demand (read+write) MSHR miss cycles
system.l2cache.overall_mshr_miss_latency::cpu.inst     62577273                       # number of overall MSHR miss cycles
system.l2cache.overall_mshr_miss_latency::cpu.data   4803491879                       # number of overall MSHR miss cycles
system.l2cache.overall_mshr_miss_latency::total   4866069152                       # number of overall MSHR miss cycles
system.l2cache.CleanEvict_mshr_miss_rate::writebacks          inf                       # mshr miss rate for CleanEvict accesses
system.l2cache.CleanEvict_mshr_miss_rate::total          inf                       # mshr miss rate for CleanEvict accesses
system.l2cache.ReadExReq_mshr_miss_rate::cpu.data     0.052002                       # mshr miss rate for ReadExReq accesses
system.l2cache.ReadExReq_mshr_miss_rate::total     0.052002                       # mshr miss rate for ReadExReq accesses
system.l2cache.ReadSharedReq_mshr_miss_rate::cpu.inst     0.960497                       # mshr miss rate for ReadSharedReq accesses
system.l2cache.ReadSharedReq_mshr_miss_rate::cpu.data     0.027586                       # mshr miss rate for ReadSharedReq accesses
system.l2cache.ReadSharedReq_mshr_miss_rate::total     0.039289                       # mshr miss rate for ReadSharedReq accesses
system.l2cache.demand_mshr_miss_rate::cpu.inst     0.960497                       # mshr miss rate for demand accesses
system.l2cache.demand_mshr_miss_rate::cpu.data     0.050675                       # mshr miss rate for demand accesses
system.l2cache.demand_mshr_miss_rate::total     0.051303                       # mshr miss rate for demand accesses
system.l2cache.overall_mshr_miss_rate::cpu.inst     0.960497                       # mshr miss rate for overall accesses
system.l2cache.overall_mshr_miss_rate::cpu.data     0.050675                       # mshr miss rate for overall accesses
system.l2cache.overall_mshr_miss_rate::total     0.051303                       # mshr miss rate for overall accesses
system.l2cache.ReadExReq_avg_mshr_miss_latency::cpu.data 73899.342081                       # average ReadExReq mshr miss latency
system.l2cache.ReadExReq_avg_mshr_miss_latency::total 73899.342081                       # average ReadExReq mshr miss latency
system.l2cache.ReadSharedReq_avg_mshr_miss_latency::cpu.inst 73533.810811                       # average ReadSharedReq mshr miss latency
system.l2cache.ReadSharedReq_avg_mshr_miss_latency::cpu.data 74263.031185                       # average ReadSharedReq mshr miss latency
system.l2cache.ReadSharedReq_avg_mshr_miss_latency::total 74039.403604                       # average ReadSharedReq mshr miss latency
system.l2cache.demand_avg_mshr_miss_latency::cpu.inst 73533.810811                       # average overall mshr miss latency
system.l2cache.demand_avg_mshr_miss_latency::cpu.data 73910.108769                       # average overall mshr miss latency
system.l2cache.demand_avg_mshr_miss_latency::total 73905.245163                       # average overall mshr miss latency
system.l2cache.overall_avg_mshr_miss_latency::cpu.inst 73533.810811                       # average overall mshr miss latency
system.l2cache.overall_avg_mshr_miss_latency::cpu.data 73910.108769                       # average overall mshr miss latency
system.l2cache.overall_avg_mshr_miss_latency::total 73905.245163                       # average overall mshr miss latency
system.membus.snoop_filter.tot_requests         68124                       # Total number of requests made to the snoop filter.
system.membus.snoop_filter.hit_single_requests         2282                       # Number of requests hitting in the snoop filter with a single holder of the requested data.
system.membus.snoop_filter.hit_multi_requests            0                       # Number of requests hitting in the snoop filter with multiple (>1) holders of the requested data.
system.membus.snoop_filter.tot_snoops               0                       # Total number of snoops made to the snoop filter.
system.membus.snoop_filter.hit_single_snoops            0                       # Number of snoops hitting in the snoop filter with a single holder of the requested data.
system.membus.snoop_filter.hit_multi_snoops            0                       # Number of snoops hitting in the snoop filter with multiple (>1) holders of the requested data.
system.membus.pwrStateResidencyTicks::UNDEFINED 151438945632                       # Cumulative time (in ticks) in various power states
system.membus.trans_dist::ReadResp               2775                       # Transaction distribution
system.membus.trans_dist::WritebackDirty          455                       # Transaction distribution
system.membus.trans_dist::CleanEvict             1827                       # Transaction distribution
system.membus.trans_dist::ReadExReq             63067                       # Transaction distribution
system.membus.trans_dist::ReadExResp            63067                       # Transaction distribution
system.membus.trans_dist::ReadSharedReq          2775                       # Transaction distribution
system.membus.pkt_count_system.l2cache.mem_side::system.mem_ctrl.port       133966                       # Packet count per connected master and slave (bytes)
system.membus.pkt_count_system.l2cache.mem_side::total       133966                       # Packet count per connected master and slave (bytes)
system.membus.pkt_count::total                 133966                       # Packet count per connected master and slave (bytes)
system.membus.pkt_size_system.l2cache.mem_side::system.mem_ctrl.port      4243008                       # Cumulative packet size per connected master and slave (bytes)
system.membus.pkt_size_system.l2cache.mem_side::total      4243008                       # Cumulative packet size per connected master and slave (bytes)
system.membus.pkt_size::total                 4243008                       # Cumulative packet size per connected master and slave (bytes)
system.membus.snoops                                0                       # Total snoops (count)
system.membus.snoopTraffic                          0                       # Total snoop traffic (bytes)
system.membus.snoop_fanout::samples             65842                       # Request fanout histogram
system.membus.snoop_fanout::mean                    0                       # Request fanout histogram
system.membus.snoop_fanout::stdev                   0                       # Request fanout histogram
system.membus.snoop_fanout::underflows              0      0.00%      0.00% # Request fanout histogram
system.membus.snoop_fanout::0                   65842    100.00%    100.00% # Request fanout histogram
system.membus.snoop_fanout::1                       0      0.00%    100.00% # Request fanout histogram
system.membus.snoop_fanout::overflows               0      0.00%    100.00% # Request fanout histogram
system.membus.snoop_fanout::min_value               0                       # Request fanout histogram
system.membus.snoop_fanout::max_value               0                       # Request fanout histogram
system.membus.snoop_fanout::total               65842                       # Request fanout histogram
system.membus.reqLayer2.occupancy            46652648                       # Layer occupancy (ticks)
system.membus.reqLayer2.utilization               0.0                       # Layer utilization (%)
system.membus.respLayer0.occupancy          257646282                       # Layer occupancy (ticks)
system.membus.respLayer0.utilization              0.2                       # Layer utilization (%)

---------- End Simulation Statistics   ----------
