
---------- Begin Simulation Statistics ----------
sim_seconds                                  0.005110                       # Number of seconds simulated
sim_ticks                                  5109564000                       # Number of ticks simulated
final_tick                                 5109564000                       # Number of ticks from beginning of simulation (restored from checkpoints and never reset)
sim_freq                                 1000000000000                       # Frequency of simulated ticks
host_inst_rate                                 103270                       # Simulator instruction rate (inst/s)
host_op_rate                                   189184                       # Simulator op (including micro ops) rate (op/s)
host_tick_rate                             2926792969                       # Simulator tick rate (ticks/s)
host_mem_usage                                 668416                       # Number of bytes of host memory used
host_seconds                                     1.75                       # Real time elapsed on the host
sim_insts                                      180286                       # Number of instructions simulated
sim_ops                                        330274                       # Number of ops (including micro ops) simulated
system.clk_domain.voltage_domain.voltage            1                       # Voltage in Volts
system.clk_domain.clock                          1000                       # Clock period in ticks
system.mem_ctrl.pwrStateResidencyTicks::UNDEFINED   5109564000                       # Cumulative time (in ticks) in various power states
system.mem_ctrl.bytes_read::cpu.inst          4327424                       # Number of bytes read from this memory
system.mem_ctrl.bytes_read::cpu.data           344434                       # Number of bytes read from this memory
system.mem_ctrl.bytes_read::total             4671858                       # Number of bytes read from this memory
system.mem_ctrl.bytes_inst_read::cpu.inst      4327424                       # Number of instructions bytes read from this memory
system.mem_ctrl.bytes_inst_read::total        4327424                       # Number of instructions bytes read from this memory
system.mem_ctrl.bytes_written::cpu.data        106799                       # Number of bytes written to this memory
system.mem_ctrl.bytes_written::total           106799                       # Number of bytes written to this memory
system.mem_ctrl.num_reads::cpu.inst             67616                       # Number of read requests responded to by this memory
system.mem_ctrl.num_reads::cpu.data             63819                       # Number of read requests responded to by this memory
system.mem_ctrl.num_reads::total               131435                       # Number of read requests responded to by this memory
system.mem_ctrl.num_writes::cpu.data            16868                       # Number of write requests responded to by this memory
system.mem_ctrl.num_writes::total               16868                       # Number of write requests responded to by this memory
system.mem_ctrl.bw_read::cpu.inst           846926274                       # Total read bandwidth from this memory (bytes/s)
system.mem_ctrl.bw_read::cpu.data            67409665                       # Total read bandwidth from this memory (bytes/s)
system.mem_ctrl.bw_read::total              914335939                       # Total read bandwidth from this memory (bytes/s)
system.mem_ctrl.bw_inst_read::cpu.inst      846926274                       # Instruction read bandwidth from this memory (bytes/s)
system.mem_ctrl.bw_inst_read::total         846926274                       # Instruction read bandwidth from this memory (bytes/s)
system.mem_ctrl.bw_write::cpu.data           20901783                       # Write bandwidth from this memory (bytes/s)
system.mem_ctrl.bw_write::total              20901783                       # Write bandwidth from this memory (bytes/s)
system.mem_ctrl.bw_total::cpu.inst          846926274                       # Total bandwidth to/from this memory (bytes/s)
system.mem_ctrl.bw_total::cpu.data           88311449                       # Total bandwidth to/from this memory (bytes/s)
system.mem_ctrl.bw_total::total             935237723                       # Total bandwidth to/from this memory (bytes/s)
system.mem_ctrl.readReqs                       131436                       # Number of read requests accepted
system.mem_ctrl.writeReqs                       16868                       # Number of write requests accepted
system.mem_ctrl.readBursts                     131436                       # Number of DRAM read bursts, including those serviced by the write queue
system.mem_ctrl.writeBursts                     16868                       # Number of DRAM write bursts, including those merged in the write queue
system.mem_ctrl.bytesReadDRAM                 7872064                       # Total number of bytes read from DRAM
system.mem_ctrl.bytesReadWrQ                   539840                       # Total number of bytes read from write queue
system.mem_ctrl.bytesWritten                    85888                       # Total number of bytes written to DRAM
system.mem_ctrl.bytesReadSys                  4671922                       # Total read bytes from the system interface side
system.mem_ctrl.bytesWrittenSys                106799                       # Total written bytes from the system interface side
system.mem_ctrl.servicedByWrQ                    8435                       # Number of DRAM read bursts serviced by the write queue
system.mem_ctrl.mergedWrBursts                  15497                       # Number of DRAM write bursts merged with an existing one
system.mem_ctrl.neitherReadNorWriteReqs             0                       # Number of requests that are neither read nor write
system.mem_ctrl.perBankRdBursts::0              17992                       # Per bank write bursts
system.mem_ctrl.perBankRdBursts::1               5624                       # Per bank write bursts
system.mem_ctrl.perBankRdBursts::2               1748                       # Per bank write bursts
system.mem_ctrl.perBankRdBursts::3               1040                       # Per bank write bursts
system.mem_ctrl.perBankRdBursts::4               3149                       # Per bank write bursts
system.mem_ctrl.perBankRdBursts::5              30504                       # Per bank write bursts
system.mem_ctrl.perBankRdBursts::6              31155                       # Per bank write bursts
system.mem_ctrl.perBankRdBursts::7              15724                       # Per bank write bursts
system.mem_ctrl.perBankRdBursts::8               2090                       # Per bank write bursts
system.mem_ctrl.perBankRdBursts::9               1977                       # Per bank write bursts
system.mem_ctrl.perBankRdBursts::10              3125                       # Per bank write bursts
system.mem_ctrl.perBankRdBursts::11              2568                       # Per bank write bursts
system.mem_ctrl.perBankRdBursts::12               402                       # Per bank write bursts
system.mem_ctrl.perBankRdBursts::13               995                       # Per bank write bursts
system.mem_ctrl.perBankRdBursts::14              1366                       # Per bank write bursts
system.mem_ctrl.perBankRdBursts::15              3542                       # Per bank write bursts
system.mem_ctrl.perBankWrBursts::0                  3                       # Per bank write bursts
system.mem_ctrl.perBankWrBursts::1                  4                       # Per bank write bursts
system.mem_ctrl.perBankWrBursts::2                  0                       # Per bank write bursts
system.mem_ctrl.perBankWrBursts::3                  0                       # Per bank write bursts
system.mem_ctrl.perBankWrBursts::4                 25                       # Per bank write bursts
system.mem_ctrl.perBankWrBursts::5                132                       # Per bank write bursts
system.mem_ctrl.perBankWrBursts::6                217                       # Per bank write bursts
system.mem_ctrl.perBankWrBursts::7                 68                       # Per bank write bursts
system.mem_ctrl.perBankWrBursts::8                 33                       # Per bank write bursts
system.mem_ctrl.perBankWrBursts::9                112                       # Per bank write bursts
system.mem_ctrl.perBankWrBursts::10               117                       # Per bank write bursts
system.mem_ctrl.perBankWrBursts::11                80                       # Per bank write bursts
system.mem_ctrl.perBankWrBursts::12                 0                       # Per bank write bursts
system.mem_ctrl.perBankWrBursts::13                 5                       # Per bank write bursts
system.mem_ctrl.perBankWrBursts::14                45                       # Per bank write bursts
system.mem_ctrl.perBankWrBursts::15               501                       # Per bank write bursts
system.mem_ctrl.numRdRetry                          0                       # Number of times read queue was full causing retry
system.mem_ctrl.numWrRetry                          0                       # Number of times write queue was full causing retry
system.mem_ctrl.totGap                     5109557000                       # Total gap between requests
system.mem_ctrl.readPktSize::0                   7589                       # Read request sizes (log2)
system.mem_ctrl.readPktSize::1                   2618                       # Read request sizes (log2)
system.mem_ctrl.readPktSize::2                  24318                       # Read request sizes (log2)
system.mem_ctrl.readPktSize::3                  29294                       # Read request sizes (log2)
system.mem_ctrl.readPktSize::4                      0                       # Read request sizes (log2)
system.mem_ctrl.readPktSize::5                      0                       # Read request sizes (log2)
system.mem_ctrl.readPktSize::6                  67617                       # Read request sizes (log2)
system.mem_ctrl.writePktSize::0                   103                       # Write request sizes (log2)
system.mem_ctrl.writePktSize::1                    20                       # Write request sizes (log2)
system.mem_ctrl.writePktSize::2                  6826                       # Write request sizes (log2)
system.mem_ctrl.writePktSize::3                  9919                       # Write request sizes (log2)
system.mem_ctrl.writePktSize::4                     0                       # Write request sizes (log2)
system.mem_ctrl.writePktSize::5                     0                       # Write request sizes (log2)
system.mem_ctrl.writePktSize::6                     0                       # Write request sizes (log2)
system.mem_ctrl.rdQLenPdf::0                    79889                       # What read queue length does an incoming req see
system.mem_ctrl.rdQLenPdf::1                    39426                       # What read queue length does an incoming req see
system.mem_ctrl.rdQLenPdf::2                     3686                       # What read queue length does an incoming req see
system.mem_ctrl.rdQLenPdf::3                        0                       # What read queue length does an incoming req see
system.mem_ctrl.rdQLenPdf::4                        0                       # What read queue length does an incoming req see
system.mem_ctrl.rdQLenPdf::5                        0                       # What read queue length does an incoming req see
system.mem_ctrl.rdQLenPdf::6                        0                       # What read queue length does an incoming req see
system.mem_ctrl.rdQLenPdf::7                        0                       # What read queue length does an incoming req see
system.mem_ctrl.rdQLenPdf::8                        0                       # What read queue length does an incoming req see
system.mem_ctrl.rdQLenPdf::9                        0                       # What read queue length does an incoming req see
system.mem_ctrl.rdQLenPdf::10                       0                       # What read queue length does an incoming req see
system.mem_ctrl.rdQLenPdf::11                       0                       # What read queue length does an incoming req see
system.mem_ctrl.rdQLenPdf::12                       0                       # What read queue length does an incoming req see
system.mem_ctrl.rdQLenPdf::13                       0                       # What read queue length does an incoming req see
system.mem_ctrl.rdQLenPdf::14                       0                       # What read queue length does an incoming req see
system.mem_ctrl.rdQLenPdf::15                       0                       # What read queue length does an incoming req see
system.mem_ctrl.rdQLenPdf::16                       0                       # What read queue length does an incoming req see
system.mem_ctrl.rdQLenPdf::17                       0                       # What read queue length does an incoming req see
system.mem_ctrl.rdQLenPdf::18                       0                       # What read queue length does an incoming req see
system.mem_ctrl.rdQLenPdf::19                       0                       # What read queue length does an incoming req see
system.mem_ctrl.rdQLenPdf::20                       0                       # What read queue length does an incoming req see
system.mem_ctrl.rdQLenPdf::21                       0                       # What read queue length does an incoming req see
system.mem_ctrl.rdQLenPdf::22                       0                       # What read queue length does an incoming req see
system.mem_ctrl.rdQLenPdf::23                       0                       # What read queue length does an incoming req see
system.mem_ctrl.rdQLenPdf::24                       0                       # What read queue length does an incoming req see
system.mem_ctrl.rdQLenPdf::25                       0                       # What read queue length does an incoming req see
system.mem_ctrl.rdQLenPdf::26                       0                       # What read queue length does an incoming req see
system.mem_ctrl.rdQLenPdf::27                       0                       # What read queue length does an incoming req see
system.mem_ctrl.rdQLenPdf::28                       0                       # What read queue length does an incoming req see
system.mem_ctrl.rdQLenPdf::29                       0                       # What read queue length does an incoming req see
system.mem_ctrl.rdQLenPdf::30                       0                       # What read queue length does an incoming req see
system.mem_ctrl.rdQLenPdf::31                       0                       # What read queue length does an incoming req see
system.mem_ctrl.wrQLenPdf::0                        1                       # What write queue length does an incoming req see
system.mem_ctrl.wrQLenPdf::1                        1                       # What write queue length does an incoming req see
system.mem_ctrl.wrQLenPdf::2                        1                       # What write queue length does an incoming req see
system.mem_ctrl.wrQLenPdf::3                        1                       # What write queue length does an incoming req see
system.mem_ctrl.wrQLenPdf::4                        1                       # What write queue length does an incoming req see
system.mem_ctrl.wrQLenPdf::5                        1                       # What write queue length does an incoming req see
system.mem_ctrl.wrQLenPdf::6                        1                       # What write queue length does an incoming req see
system.mem_ctrl.wrQLenPdf::7                        1                       # What write queue length does an incoming req see
system.mem_ctrl.wrQLenPdf::8                        1                       # What write queue length does an incoming req see
system.mem_ctrl.wrQLenPdf::9                        1                       # What write queue length does an incoming req see
system.mem_ctrl.wrQLenPdf::10                       1                       # What write queue length does an incoming req see
system.mem_ctrl.wrQLenPdf::11                       1                       # What write queue length does an incoming req see
system.mem_ctrl.wrQLenPdf::12                       1                       # What write queue length does an incoming req see
system.mem_ctrl.wrQLenPdf::13                       1                       # What write queue length does an incoming req see
system.mem_ctrl.wrQLenPdf::14                       1                       # What write queue length does an incoming req see
system.mem_ctrl.wrQLenPdf::15                      11                       # What write queue length does an incoming req see
system.mem_ctrl.wrQLenPdf::16                      17                       # What write queue length does an incoming req see
system.mem_ctrl.wrQLenPdf::17                      78                       # What write queue length does an incoming req see
system.mem_ctrl.wrQLenPdf::18                      82                       # What write queue length does an incoming req see
system.mem_ctrl.wrQLenPdf::19                      83                       # What write queue length does an incoming req see
system.mem_ctrl.wrQLenPdf::20                      83                       # What write queue length does an incoming req see
system.mem_ctrl.wrQLenPdf::21                      85                       # What write queue length does an incoming req see
system.mem_ctrl.wrQLenPdf::22                      86                       # What write queue length does an incoming req see
system.mem_ctrl.wrQLenPdf::23                      84                       # What write queue length does an incoming req see
system.mem_ctrl.wrQLenPdf::24                      84                       # What write queue length does an incoming req see
system.mem_ctrl.wrQLenPdf::25                      83                       # What write queue length does an incoming req see
system.mem_ctrl.wrQLenPdf::26                      84                       # What write queue length does an incoming req see
system.mem_ctrl.wrQLenPdf::27                      85                       # What write queue length does an incoming req see
system.mem_ctrl.wrQLenPdf::28                      83                       # What write queue length does an incoming req see
system.mem_ctrl.wrQLenPdf::29                      82                       # What write queue length does an incoming req see
system.mem_ctrl.wrQLenPdf::30                      82                       # What write queue length does an incoming req see
system.mem_ctrl.wrQLenPdf::31                      82                       # What write queue length does an incoming req see
system.mem_ctrl.wrQLenPdf::32                      82                       # What write queue length does an incoming req see
system.mem_ctrl.wrQLenPdf::33                       0                       # What write queue length does an incoming req see
system.mem_ctrl.wrQLenPdf::34                       0                       # What write queue length does an incoming req see
system.mem_ctrl.wrQLenPdf::35                       0                       # What write queue length does an incoming req see
system.mem_ctrl.wrQLenPdf::36                       0                       # What write queue length does an incoming req see
system.mem_ctrl.wrQLenPdf::37                       0                       # What write queue length does an incoming req see
system.mem_ctrl.wrQLenPdf::38                       0                       # What write queue length does an incoming req see
system.mem_ctrl.wrQLenPdf::39                       0                       # What write queue length does an incoming req see
system.mem_ctrl.wrQLenPdf::40                       0                       # What write queue length does an incoming req see
system.mem_ctrl.wrQLenPdf::41                       0                       # What write queue length does an incoming req see
system.mem_ctrl.wrQLenPdf::42                       0                       # What write queue length does an incoming req see
system.mem_ctrl.wrQLenPdf::43                       0                       # What write queue length does an incoming req see
system.mem_ctrl.wrQLenPdf::44                       0                       # What write queue length does an incoming req see
system.mem_ctrl.wrQLenPdf::45                       0                       # What write queue length does an incoming req see
system.mem_ctrl.wrQLenPdf::46                       0                       # What write queue length does an incoming req see
system.mem_ctrl.wrQLenPdf::47                       0                       # What write queue length does an incoming req see
system.mem_ctrl.wrQLenPdf::48                       0                       # What write queue length does an incoming req see
system.mem_ctrl.wrQLenPdf::49                       0                       # What write queue length does an incoming req see
system.mem_ctrl.wrQLenPdf::50                       0                       # What write queue length does an incoming req see
system.mem_ctrl.wrQLenPdf::51                       0                       # What write queue length does an incoming req see
system.mem_ctrl.wrQLenPdf::52                       0                       # What write queue length does an incoming req see
system.mem_ctrl.wrQLenPdf::53                       0                       # What write queue length does an incoming req see
system.mem_ctrl.wrQLenPdf::54                       0                       # What write queue length does an incoming req see
system.mem_ctrl.wrQLenPdf::55                       0                       # What write queue length does an incoming req see
system.mem_ctrl.wrQLenPdf::56                       0                       # What write queue length does an incoming req see
system.mem_ctrl.wrQLenPdf::57                       0                       # What write queue length does an incoming req see
system.mem_ctrl.wrQLenPdf::58                       0                       # What write queue length does an incoming req see
system.mem_ctrl.wrQLenPdf::59                       0                       # What write queue length does an incoming req see
system.mem_ctrl.wrQLenPdf::60                       0                       # What write queue length does an incoming req see
system.mem_ctrl.wrQLenPdf::61                       0                       # What write queue length does an incoming req see
system.mem_ctrl.wrQLenPdf::62                       0                       # What write queue length does an incoming req see
system.mem_ctrl.wrQLenPdf::63                       0                       # What write queue length does an incoming req see
system.mem_ctrl.bytesPerActivate::samples        20181                       # Bytes accessed per row activation
system.mem_ctrl.bytesPerActivate::mean     394.224270                       # Bytes accessed per row activation
system.mem_ctrl.bytesPerActivate::gmean    227.301952                       # Bytes accessed per row activation
system.mem_ctrl.bytesPerActivate::stdev    378.878018                       # Bytes accessed per row activation
system.mem_ctrl.bytesPerActivate::0-127          6861     34.00%     34.00% # Bytes accessed per row activation
system.mem_ctrl.bytesPerActivate::128-255         2811     13.93%     47.93% # Bytes accessed per row activation
system.mem_ctrl.bytesPerActivate::256-383         3262     16.16%     64.09% # Bytes accessed per row activation
system.mem_ctrl.bytesPerActivate::384-511         1174      5.82%     69.91% # Bytes accessed per row activation
system.mem_ctrl.bytesPerActivate::512-639          436      2.16%     72.07% # Bytes accessed per row activation
system.mem_ctrl.bytesPerActivate::640-767          448      2.22%     74.29% # Bytes accessed per row activation
system.mem_ctrl.bytesPerActivate::768-895          477      2.36%     76.65% # Bytes accessed per row activation
system.mem_ctrl.bytesPerActivate::896-1023          580      2.87%     79.53% # Bytes accessed per row activation
system.mem_ctrl.bytesPerActivate::1024-1151         4132     20.47%    100.00% # Bytes accessed per row activation
system.mem_ctrl.bytesPerActivate::total         20181                       # Bytes accessed per row activation
system.mem_ctrl.rdPerTurnAround::samples           82                       # Reads before turning the bus around for writes
system.mem_ctrl.rdPerTurnAround::mean     1492.878049                       # Reads before turning the bus around for writes
system.mem_ctrl.rdPerTurnAround::gmean     478.542182                       # Reads before turning the bus around for writes
system.mem_ctrl.rdPerTurnAround::stdev    5487.473289                       # Reads before turning the bus around for writes
system.mem_ctrl.rdPerTurnAround::0-2047            79     96.34%     96.34% # Reads before turning the bus around for writes
system.mem_ctrl.rdPerTurnAround::12288-14335            1      1.22%     97.56% # Reads before turning the bus around for writes
system.mem_ctrl.rdPerTurnAround::20480-22527            1      1.22%     98.78% # Reads before turning the bus around for writes
system.mem_ctrl.rdPerTurnAround::43008-45055            1      1.22%    100.00% # Reads before turning the bus around for writes
system.mem_ctrl.rdPerTurnAround::total             82                       # Reads before turning the bus around for writes
system.mem_ctrl.wrPerTurnAround::samples           82                       # Writes before turning the bus around for reads
system.mem_ctrl.wrPerTurnAround::mean       16.365854                       # Writes before turning the bus around for reads
system.mem_ctrl.wrPerTurnAround::gmean      16.346006                       # Writes before turning the bus around for reads
system.mem_ctrl.wrPerTurnAround::stdev       0.839050                       # Writes before turning the bus around for reads
system.mem_ctrl.wrPerTurnAround::16                67     81.71%     81.71% # Writes before turning the bus around for reads
system.mem_ctrl.wrPerTurnAround::17                 4      4.88%     86.59% # Writes before turning the bus around for reads
system.mem_ctrl.wrPerTurnAround::18                 7      8.54%     95.12% # Writes before turning the bus around for reads
system.mem_ctrl.wrPerTurnAround::19                 4      4.88%    100.00% # Writes before turning the bus around for reads
system.mem_ctrl.wrPerTurnAround::total             82                       # Writes before turning the bus around for reads
system.mem_ctrl.totQLat                    1598196808                       # Total ticks spent queuing
system.mem_ctrl.totMemAccLat               3669779650                       # Total ticks spent from burst creation until serviced by the DRAM
system.mem_ctrl.totBusLat                   461499752                       # Total ticks spent in databus transfers
system.mem_ctrl.avgQLat                      12993.36                       # Average queueing delay per DRAM burst
system.mem_ctrl.avgBusLat                     3752.00                       # Average bus latency per DRAM burst
system.mem_ctrl.avgMemAccLat                 29835.36                       # Average memory access latency per DRAM burst
system.mem_ctrl.avgRdBW                       1540.65                       # Average DRAM read bandwidth in MiByte/s
system.mem_ctrl.avgWrBW                         16.81                       # Average achieved write bandwidth in MiByte/s
system.mem_ctrl.avgRdBWSys                     914.35                       # Average system read bandwidth in MiByte/s
system.mem_ctrl.avgWrBWSys                      20.90                       # Average system write bandwidth in MiByte/s
system.mem_ctrl.peakBW                       17057.00                       # Theoretical peak bandwidth in MiByte/s
system.mem_ctrl.busUtil                          9.13                       # Data bus utilization in percentage
system.mem_ctrl.busUtilRead                      9.03                       # Data bus utilization in percentage for reads
system.mem_ctrl.busUtilWrite                     0.10                       # Data bus utilization in percentage for writes
system.mem_ctrl.avgRdQLen                        1.53                       # Average read queue length when enqueuing
system.mem_ctrl.avgWrQLen                       29.07                       # Average write queue length when enqueuing
system.mem_ctrl.readRowHits                    102929                       # Number of row buffer hits during reads
system.mem_ctrl.writeRowHits                     1227                       # Number of row buffer hits during writes
system.mem_ctrl.readRowHitRate                  83.68                       # Row buffer hit rate for reads
system.mem_ctrl.writeRowHitRate                 89.50                       # Row buffer hit rate for writes
system.mem_ctrl.avgGap                       34453.26                       # Average gap between requests
system.mem_ctrl.pageHitRate                     83.75                       # Row buffer hit rate, read and write combined
system.mem_ctrl_0.actEnergy              193865870.016000                       # Energy for activate commands per rank (pJ)
system.mem_ctrl_0.preEnergy              95674604.256000                       # Energy for precharge commands per rank (pJ)
system.mem_ctrl_0.readEnergy             707758910.208000                       # Energy for read commands per rank (pJ)
system.mem_ctrl_0.writeEnergy            2284382.688000                       # Energy for write commands per rank (pJ)
system.mem_ctrl_0.refreshEnergy          423507855.456000                       # Energy for refresh commands per rank (pJ)
system.mem_ctrl_0.actBackEnergy          1367506613.088000                       # Energy for active background per rank (pJ)
system.mem_ctrl_0.preBackEnergy          14337465.072000                       # Energy for precharge background per rank (pJ)
system.mem_ctrl_0.actPowerDownEnergy     1296003863.616000                       # Energy for active power-down per rank (pJ)
system.mem_ctrl_0.prePowerDownEnergy     14228383.176000                       # Energy for precharge power-down per rank (pJ)
system.mem_ctrl_0.selfRefreshEnergy      2405137.056000                       # Energy for self refresh per rank (pJ)
system.mem_ctrl_0.totalEnergy            4117573084.632000                       # Total energy per rank (pJ)
system.mem_ctrl_0.averagePower             805.855962                       # Core power per rank (mW)
system.mem_ctrl_0.totalIdleTime            2487050338                       # Total Idle time Per DRAM Rank
system.mem_ctrl_0.memoryStateTime::IDLE       3523000                       # Time in different power states
system.mem_ctrl_0.memoryStateTime::REF      170838000                       # Time in different power states
system.mem_ctrl_0.memoryStateTime::SREF       5171870                       # Time in different power states
system.mem_ctrl_0.memoryStateTime::PRE_PDN     27583102                       # Time in different power states
system.mem_ctrl_0.memoryStateTime::ACT     2447881504                       # Time in different power states
system.mem_ctrl_0.memoryStateTime::ACT_PDN   2454566524                       # Time in different power states
system.mem_ctrl_1.actEnergy              18816610.176000                       # Energy for activate commands per rank (pJ)
system.mem_ctrl_1.preEnergy              9272084.976000                       # Energy for precharge commands per rank (pJ)
system.mem_ctrl_1.readEnergy             106326652.320000                       # Energy for read commands per rank (pJ)
system.mem_ctrl_1.writeEnergy            4543326.816000                       # Energy for write commands per rank (pJ)
system.mem_ctrl_1.refreshEnergy          339064127.808000                       # Energy for refresh commands per rank (pJ)
system.mem_ctrl_1.actBackEnergy          370969574.976000                       # Energy for active background per rank (pJ)
system.mem_ctrl_1.preBackEnergy          17371463.592000                       # Energy for precharge background per rank (pJ)
system.mem_ctrl_1.actPowerDownEnergy     1353819497.184000                       # Energy for active power-down per rank (pJ)
system.mem_ctrl_1.prePowerDownEnergy     288649302.984000                       # Energy for precharge power-down per rank (pJ)
system.mem_ctrl_1.selfRefreshEnergy      317338426.944000                       # Energy for self refresh per rank (pJ)
system.mem_ctrl_1.totalEnergy            2826305554.464000                       # Total energy per rank (pJ)
system.mem_ctrl_1.averagePower             553.140196                       # Core power per rank (mW)
system.mem_ctrl_1.totalIdleTime            4367486788                       # Total Idle time Per DRAM Rank
system.mem_ctrl_1.memoryStateTime::IDLE      21118910                       # Time in different power states
system.mem_ctrl_1.memoryStateTime::REF      137186000                       # Time in different power states
system.mem_ctrl_1.memoryStateTime::SREF    1244136040                       # Time in different power states
system.mem_ctrl_1.memoryStateTime::PRE_PDN    559392384                       # Time in different power states
system.mem_ctrl_1.memoryStateTime::ACT      583772302                       # Time in different power states
system.mem_ctrl_1.memoryStateTime::ACT_PDN   2563958364                       # Time in different power states
system.pwrStateResidencyTicks::UNDEFINED   5109564000                       # Cumulative time (in ticks) in various power states
system.cpu.branchPred.lookups                      78                       # Number of BP lookups
system.cpu.branchPred.condPredicted                78                       # Number of conditional branches predicted
system.cpu.branchPred.condIncorrect                31                       # Number of conditional branches incorrect
system.cpu.branchPred.BTBLookups                   44                       # Number of BTB lookups
system.cpu.branchPred.BTBHits                       0                       # Number of BTB hits
system.cpu.branchPred.BTBCorrect                    0                       # Number of correct BTB predictions (this stat may not work properly.
system.cpu.branchPred.BTBHitPct              0.000000                       # BTB Hit Percentage
system.cpu.branchPred.usedRAS                       0                       # Number of times the RAS was used to get a target.
system.cpu.branchPred.RASInCorrect                  0                       # Number of incorrect RAS predictions.
system.cpu.branchPred.indirectLookups              44                       # Number of indirect predictor lookups.
system.cpu.branchPred.indirectHits                  0                       # Number of indirect target hits.
system.cpu.branchPred.indirectMisses               44                       # Number of indirect misses.
system.cpu.branchPredindirectMispredicted           16                       # Number of mispredicted indirect branches.
system.cpu.dtb.walker.pwrStateResidencyTicks::UNDEFINED   5109564000                       # Cumulative time (in ticks) in various power states
system.cpu.dtb.rdAccesses                       65902                       # TLB accesses on read requests
system.cpu.dtb.wrAccesses                       17040                       # TLB accesses on write requests
system.cpu.dtb.rdMisses                          1694                       # TLB misses on read requests
system.cpu.dtb.wrMisses                            24                       # TLB misses on write requests
system.cpu.apic_clk_domain.clock                16000                       # Clock period in ticks
system.cpu.interrupts.pwrStateResidencyTicks::UNDEFINED   5109564000                       # Cumulative time (in ticks) in various power states
system.cpu.itb.walker.pwrStateResidencyTicks::UNDEFINED   5109564000                       # Cumulative time (in ticks) in various power states
system.cpu.itb.rdAccesses                           0                       # TLB accesses on read requests
system.cpu.itb.wrAccesses                       67617                       # TLB accesses on write requests
system.cpu.itb.rdMisses                             0                       # TLB misses on read requests
system.cpu.itb.wrMisses                            89                       # TLB misses on write requests
system.cpu.workload.numSyscalls                    32                       # Number of system calls
system.cpu.pwrStateResidencyTicks::ON      5109564000                       # Cumulative time (in ticks) in various power states
system.cpu.numCycles                          5109564                       # number of cpu cycles simulated
system.cpu.numWorkItemsStarted                      0                       # number of work items this cpu started
system.cpu.numWorkItemsCompleted                    0                       # number of work items this cpu completed
system.cpu.committedInsts                      180286                       # Number of instructions committed
system.cpu.committedOps                        330274                       # Number of ops (including micro ops) committed
system.cpu.discardedOps                         76769                       # Number of ops (including micro ops) which were discarded before commit
system.cpu.numFetchSuspends                         0                       # Number of times Execute suspended instruction fetching
system.cpu.cpi                              28.341435                       # CPI: cycles per instruction
system.cpu.ipc                               0.035284                       # IPC: instructions per cycle
system.cpu.op_class_0::No_OpClass                1287      0.39%      0.39% # Class of committed instruction
system.cpu.op_class_0::IntAlu                  253310     76.70%     77.09% # Class of committed instruction
system.cpu.op_class_0::IntMult                     61      0.02%     77.11% # Class of committed instruction
system.cpu.op_class_0::IntDiv                    1131      0.34%     77.45% # Class of committed instruction
system.cpu.op_class_0::FloatAdd                  2227      0.67%     78.12% # Class of committed instruction
system.cpu.op_class_0::FloatCmp                     0      0.00%     78.12% # Class of committed instruction
system.cpu.op_class_0::FloatCvt                     0      0.00%     78.12% # Class of committed instruction
system.cpu.op_class_0::FloatMult                    0      0.00%     78.12% # Class of committed instruction
system.cpu.op_class_0::FloatMultAcc                 0      0.00%     78.12% # Class of committed instruction
system.cpu.op_class_0::FloatDiv                     0      0.00%     78.12% # Class of committed instruction
system.cpu.op_class_0::FloatMisc                    0      0.00%     78.12% # Class of committed instruction
system.cpu.op_class_0::FloatSqrt                    0      0.00%     78.12% # Class of committed instruction
system.cpu.op_class_0::SimdAdd                      0      0.00%     78.12% # Class of committed instruction
system.cpu.op_class_0::SimdAddAcc                   0      0.00%     78.12% # Class of committed instruction
system.cpu.op_class_0::SimdAlu                      0      0.00%     78.12% # Class of committed instruction
system.cpu.op_class_0::SimdCmp                      0      0.00%     78.12% # Class of committed instruction
system.cpu.op_class_0::SimdCvt                      0      0.00%     78.12% # Class of committed instruction
system.cpu.op_class_0::SimdMisc                     0      0.00%     78.12% # Class of committed instruction
system.cpu.op_class_0::SimdMult                     0      0.00%     78.12% # Class of committed instruction
system.cpu.op_class_0::SimdMultAcc                  0      0.00%     78.12% # Class of committed instruction
system.cpu.op_class_0::SimdShift                    0      0.00%     78.12% # Class of committed instruction
system.cpu.op_class_0::SimdShiftAcc                 0      0.00%     78.12% # Class of committed instruction
system.cpu.op_class_0::SimdSqrt                     0      0.00%     78.12% # Class of committed instruction
system.cpu.op_class_0::SimdFloatAdd                 0      0.00%     78.12% # Class of committed instruction
system.cpu.op_class_0::SimdFloatAlu                 0      0.00%     78.12% # Class of committed instruction
system.cpu.op_class_0::SimdFloatCmp                 0      0.00%     78.12% # Class of committed instruction
system.cpu.op_class_0::SimdFloatCvt                 0      0.00%     78.12% # Class of committed instruction
system.cpu.op_class_0::SimdFloatDiv                 0      0.00%     78.12% # Class of committed instruction
system.cpu.op_class_0::SimdFloatMisc                0      0.00%     78.12% # Class of committed instruction
system.cpu.op_class_0::SimdFloatMult                0      0.00%     78.12% # Class of committed instruction
system.cpu.op_class_0::SimdFloatMultAcc             0      0.00%     78.12% # Class of committed instruction
system.cpu.op_class_0::SimdFloatSqrt                0      0.00%     78.12% # Class of committed instruction
system.cpu.op_class_0::MemRead                  54608     16.53%     94.66% # Class of committed instruction
system.cpu.op_class_0::MemWrite                 16484      4.99%     99.65% # Class of committed instruction
system.cpu.op_class_0::FloatMemRead               782      0.24%     99.88% # Class of committed instruction
system.cpu.op_class_0::FloatMemWrite              384      0.12%    100.00% # Class of committed instruction
system.cpu.op_class_0::IprAccess                    0      0.00%    100.00% # Class of committed instruction
system.cpu.op_class_0::InstPrefetch                 0      0.00%    100.00% # Class of committed instruction
system.cpu.op_class_0::total                   330274                       # Class of committed instruction
system.cpu.tickCycles                          843886                       # Number of cycles that the object actually ticked
system.cpu.idleCycles                         4265678                       # Total number of cycles that the object has spent stopped
system.membus.snoop_filter.tot_requests             0                       # Total number of requests made to the snoop filter.
system.membus.snoop_filter.hit_single_requests            0                       # Number of requests hitting in the snoop filter with a single holder of the requested data.
system.membus.snoop_filter.hit_multi_requests            0                       # Number of requests hitting in the snoop filter with multiple (>1) holders of the requested data.
system.membus.snoop_filter.tot_snoops               0                       # Total number of snoops made to the snoop filter.
system.membus.snoop_filter.hit_single_snoops            0                       # Number of snoops hitting in the snoop filter with a single holder of the requested data.
system.membus.snoop_filter.hit_multi_snoops            0                       # Number of snoops hitting in the snoop filter with multiple (>1) holders of the requested data.
system.membus.pwrStateResidencyTicks::UNDEFINED   5109564000                       # Cumulative time (in ticks) in various power states
system.membus.trans_dist::ReadReq              131436                       # Transaction distribution
system.membus.trans_dist::ReadResp             131435                       # Transaction distribution
system.membus.trans_dist::WriteReq              16868                       # Transaction distribution
system.membus.trans_dist::WriteResp             16868                       # Transaction distribution
system.membus.pkt_count_system.cpu.fetch1.icache_port::system.mem_ctrl.port       135233                       # Packet count per connected master and slave (bytes)
system.membus.pkt_count_system.cpu.fetch1.icache_port::total       135233                       # Packet count per connected master and slave (bytes)
system.membus.pkt_count_system.cpu.execute.dcache_port::system.mem_ctrl.port       161374                       # Packet count per connected master and slave (bytes)
system.membus.pkt_count_system.cpu.execute.dcache_port::total       161374                       # Packet count per connected master and slave (bytes)
system.membus.pkt_count::total                 296607                       # Packet count per connected master and slave (bytes)
system.membus.pkt_size_system.cpu.fetch1.icache_port::system.mem_ctrl.port      4327424                       # Cumulative packet size per connected master and slave (bytes)
system.membus.pkt_size_system.cpu.fetch1.icache_port::total      4327424                       # Cumulative packet size per connected master and slave (bytes)
system.membus.pkt_size_system.cpu.execute.dcache_port::system.mem_ctrl.port       451233                       # Cumulative packet size per connected master and slave (bytes)
system.membus.pkt_size_system.cpu.execute.dcache_port::total       451233                       # Cumulative packet size per connected master and slave (bytes)
system.membus.pkt_size::total                 4778657                       # Cumulative packet size per connected master and slave (bytes)
system.membus.snoops                                0                       # Total snoops (count)
system.membus.snoopTraffic                          0                       # Total snoop traffic (bytes)
system.membus.snoop_fanout::samples            148304                       # Request fanout histogram
system.membus.snoop_fanout::mean                    0                       # Request fanout histogram
system.membus.snoop_fanout::stdev                   0                       # Request fanout histogram
system.membus.snoop_fanout::underflows              0      0.00%      0.00% # Request fanout histogram
system.membus.snoop_fanout::0                  148304    100.00%    100.00% # Request fanout histogram
system.membus.snoop_fanout::1                       0      0.00%    100.00% # Request fanout histogram
system.membus.snoop_fanout::overflows               0      0.00%    100.00% # Request fanout histogram
system.membus.snoop_fanout::min_value               0                       # Request fanout histogram
system.membus.snoop_fanout::max_value               0                       # Request fanout histogram
system.membus.snoop_fanout::total              148304                       # Request fanout histogram
system.membus.reqLayer2.occupancy           165172000                       # Layer occupancy (ticks)
system.membus.reqLayer2.utilization               3.2                       # Layer utilization (%)
system.membus.respLayer0.occupancy          354899156                       # Layer occupancy (ticks)
system.membus.respLayer0.utilization              6.9                       # Layer utilization (%)
system.membus.respLayer1.occupancy          164445288                       # Layer occupancy (ticks)
system.membus.respLayer1.utilization              3.2                       # Layer utilization (%)

---------- End Simulation Statistics   ----------
