
---------- Begin Simulation Statistics ----------
sim_seconds                                  1.246123                       # Number of seconds simulated
sim_ticks                                1246122568576                       # Number of ticks simulated
final_tick                               1246122568576                       # Number of ticks from beginning of simulation (restored from checkpoints and never reset)
sim_freq                                 1000000000000                       # Frequency of simulated ticks
host_inst_rate                                 123912                       # Simulator instruction rate (inst/s)
host_op_rate                                   213135                       # Simulator op (including micro ops) rate (op/s)
host_tick_rate                             3237082940                       # Simulator tick rate (ticks/s)
host_mem_usage                                 668420                       # Number of bytes of host memory used
host_seconds                                   384.95                       # Real time elapsed on the host
sim_insts                                    47700244                       # Number of instructions simulated
sim_ops                                      82046706                       # Number of ops (including micro ops) simulated
system.clk_domain.voltage_domain.voltage            1                       # Voltage in Volts
system.clk_domain.clock                           667                       # Clock period in ticks
system.mem_ctrl.pwrStateResidencyTicks::UNDEFINED 1246122568576                       # Cumulative time (in ticks) in various power states
system.mem_ctrl.bytes_read::cpu.inst       1171898304                       # Number of bytes read from this memory
system.mem_ctrl.bytes_read::cpu.data        124182688                       # Number of bytes read from this memory
system.mem_ctrl.bytes_read::total          1296080992                       # Number of bytes read from this memory
system.mem_ctrl.bytes_inst_read::cpu.inst   1171898304                       # Number of instructions bytes read from this memory
system.mem_ctrl.bytes_inst_read::total     1171898304                       # Number of instructions bytes read from this memory
system.mem_ctrl.bytes_written::cpu.data      29377849                       # Number of bytes written to this memory
system.mem_ctrl.bytes_written::total         29377849                       # Number of bytes written to this memory
system.mem_ctrl.num_reads::cpu.inst          18310911                       # Number of read requests responded to by this memory
system.mem_ctrl.num_reads::cpu.data          26903586                       # Number of read requests responded to by this memory
system.mem_ctrl.num_reads::total             45214497                       # Number of read requests responded to by this memory
system.mem_ctrl.num_writes::cpu.data          7334621                       # Number of write requests responded to by this memory
system.mem_ctrl.num_writes::total             7334621                       # Number of write requests responded to by this memory
system.mem_ctrl.bw_read::cpu.inst           940435824                       # Total read bandwidth from this memory (bytes/s)
system.mem_ctrl.bw_read::cpu.data            99655276                       # Total read bandwidth from this memory (bytes/s)
system.mem_ctrl.bw_read::total             1040091099                       # Total read bandwidth from this memory (bytes/s)
system.mem_ctrl.bw_inst_read::cpu.inst      940435824                       # Instruction read bandwidth from this memory (bytes/s)
system.mem_ctrl.bw_inst_read::total         940435824                       # Instruction read bandwidth from this memory (bytes/s)
system.mem_ctrl.bw_write::cpu.data           23575409                       # Write bandwidth from this memory (bytes/s)
system.mem_ctrl.bw_write::total              23575409                       # Write bandwidth from this memory (bytes/s)
system.mem_ctrl.bw_total::cpu.inst          940435824                       # Total bandwidth to/from this memory (bytes/s)
system.mem_ctrl.bw_total::cpu.data          123230684                       # Total bandwidth to/from this memory (bytes/s)
system.mem_ctrl.bw_total::total            1063666508                       # Total bandwidth to/from this memory (bytes/s)
system.mem_ctrl.readReqs                     45214498                       # Number of read requests accepted
system.mem_ctrl.writeReqs                     7334621                       # Number of write requests accepted
system.mem_ctrl.readBursts                   45214498                       # Number of DRAM read bursts, including those serviced by the write queue
system.mem_ctrl.writeBursts                   7334621                       # Number of DRAM write bursts, including those merged in the write queue
system.mem_ctrl.bytesReadDRAM              2298756928                       # Total number of bytes read from DRAM
system.mem_ctrl.bytesReadWrQ                594970944                       # Total number of bytes read from write queue
system.mem_ctrl.bytesWritten                 82901568                       # Total number of bytes written to DRAM
system.mem_ctrl.bytesReadSys               1296081056                       # Total read bytes from the system interface side
system.mem_ctrl.bytesWrittenSys              29377849                       # Total written bytes from the system interface side
system.mem_ctrl.servicedByWrQ                 9296421                       # Number of DRAM read bursts serviced by the write queue
system.mem_ctrl.mergedWrBursts                6039262                       # Number of DRAM write bursts merged with an existing one
system.mem_ctrl.neitherReadNorWriteReqs             0                       # Number of requests that are neither read nor write
system.mem_ctrl.perBankRdBursts::0           18324831                       # Per bank write bursts
system.mem_ctrl.perBankRdBursts::1            4188870                       # Per bank write bursts
system.mem_ctrl.perBankRdBursts::2              65235                       # Per bank write bursts
system.mem_ctrl.perBankRdBursts::3              64526                       # Per bank write bursts
system.mem_ctrl.perBankRdBursts::4              66675                       # Per bank write bursts
system.mem_ctrl.perBankRdBursts::5              93975                       # Per bank write bursts
system.mem_ctrl.perBankRdBursts::6           12526569                       # Per bank write bursts
system.mem_ctrl.perBankRdBursts::7              77752                       # Per bank write bursts
system.mem_ctrl.perBankRdBursts::8              63547                       # Per bank write bursts
system.mem_ctrl.perBankRdBursts::9              63416                       # Per bank write bursts
system.mem_ctrl.perBankRdBursts::10             64579                       # Per bank write bursts
system.mem_ctrl.perBankRdBursts::11             64010                       # Per bank write bursts
system.mem_ctrl.perBankRdBursts::12             61842                       # Per bank write bursts
system.mem_ctrl.perBankRdBursts::13             62435                       # Per bank write bursts
system.mem_ctrl.perBankRdBursts::14             62796                       # Per bank write bursts
system.mem_ctrl.perBankRdBursts::15             67019                       # Per bank write bursts
system.mem_ctrl.perBankWrBursts::0              77577                       # Per bank write bursts
system.mem_ctrl.perBankWrBursts::1              77745                       # Per bank write bursts
system.mem_ctrl.perBankWrBursts::2              78250                       # Per bank write bursts
system.mem_ctrl.perBankWrBursts::3              77929                       # Per bank write bursts
system.mem_ctrl.perBankWrBursts::4              78055                       # Per bank write bursts
system.mem_ctrl.perBankWrBursts::5              78222                       # Per bank write bursts
system.mem_ctrl.perBankWrBursts::6             149654                       # Per bank write bursts
system.mem_ctrl.perBankWrBursts::7              76736                       # Per bank write bursts
system.mem_ctrl.perBankWrBursts::8              74793                       # Per bank write bursts
system.mem_ctrl.perBankWrBursts::9              74940                       # Per bank write bursts
system.mem_ctrl.perBankWrBursts::10             74989                       # Per bank write bursts
system.mem_ctrl.perBankWrBursts::11             75018                       # Per bank write bursts
system.mem_ctrl.perBankWrBursts::12             74929                       # Per bank write bursts
system.mem_ctrl.perBankWrBursts::13             75012                       # Per bank write bursts
system.mem_ctrl.perBankWrBursts::14             75129                       # Per bank write bursts
system.mem_ctrl.perBankWrBursts::15             76359                       # Per bank write bursts
system.mem_ctrl.numRdRetry                          0                       # Number of times read queue was full causing retry
system.mem_ctrl.numWrRetry                          0                       # Number of times write queue was full causing retry
system.mem_ctrl.totGap                   1246122563907                       # Total gap between requests
system.mem_ctrl.readPktSize::0                   7598                       # Read request sizes (log2)
system.mem_ctrl.readPktSize::1                   2618                       # Read request sizes (log2)
system.mem_ctrl.readPktSize::2               22744273                       # Read request sizes (log2)
system.mem_ctrl.readPktSize::3                4149097                       # Read request sizes (log2)
system.mem_ctrl.readPktSize::4                      0                       # Read request sizes (log2)
system.mem_ctrl.readPktSize::5                      0                       # Read request sizes (log2)
system.mem_ctrl.readPktSize::6               18310912                       # Read request sizes (log2)
system.mem_ctrl.writePktSize::0                   109                       # Write request sizes (log2)
system.mem_ctrl.writePktSize::1                    20                       # Write request sizes (log2)
system.mem_ctrl.writePktSize::2               7324559                       # Write request sizes (log2)
system.mem_ctrl.writePktSize::3                  9933                       # Write request sizes (log2)
system.mem_ctrl.writePktSize::4                     0                       # Write request sizes (log2)
system.mem_ctrl.writePktSize::5                     0                       # Write request sizes (log2)
system.mem_ctrl.writePktSize::6                     0                       # Write request sizes (log2)
system.mem_ctrl.rdQLenPdf::0                 20742466                       # What read queue length does an incoming req see
system.mem_ctrl.rdQLenPdf::1                 15170877                       # What read queue length does an incoming req see
system.mem_ctrl.rdQLenPdf::2                     4734                       # What read queue length does an incoming req see
system.mem_ctrl.rdQLenPdf::3                        0                       # What read queue length does an incoming req see
system.mem_ctrl.rdQLenPdf::4                        0                       # What read queue length does an incoming req see
system.mem_ctrl.rdQLenPdf::5                        0                       # What read queue length does an incoming req see
system.mem_ctrl.rdQLenPdf::6                        0                       # What read queue length does an incoming req see
system.mem_ctrl.rdQLenPdf::7                        0                       # What read queue length does an incoming req see
system.mem_ctrl.rdQLenPdf::8                        0                       # What read queue length does an incoming req see
system.mem_ctrl.rdQLenPdf::9                        0                       # What read queue length does an incoming req see
system.mem_ctrl.rdQLenPdf::10                       0                       # What read queue length does an incoming req see
system.mem_ctrl.rdQLenPdf::11                       0                       # What read queue length does an incoming req see
system.mem_ctrl.rdQLenPdf::12                       0                       # What read queue length does an incoming req see
system.mem_ctrl.rdQLenPdf::13                       0                       # What read queue length does an incoming req see
system.mem_ctrl.rdQLenPdf::14                       0                       # What read queue length does an incoming req see
system.mem_ctrl.rdQLenPdf::15                       0                       # What read queue length does an incoming req see
system.mem_ctrl.rdQLenPdf::16                       0                       # What read queue length does an incoming req see
system.mem_ctrl.rdQLenPdf::17                       0                       # What read queue length does an incoming req see
system.mem_ctrl.rdQLenPdf::18                       0                       # What read queue length does an incoming req see
system.mem_ctrl.rdQLenPdf::19                       0                       # What read queue length does an incoming req see
system.mem_ctrl.rdQLenPdf::20                       0                       # What read queue length does an incoming req see
system.mem_ctrl.rdQLenPdf::21                       0                       # What read queue length does an incoming req see
system.mem_ctrl.rdQLenPdf::22                       0                       # What read queue length does an incoming req see
system.mem_ctrl.rdQLenPdf::23                       0                       # What read queue length does an incoming req see
system.mem_ctrl.rdQLenPdf::24                       0                       # What read queue length does an incoming req see
system.mem_ctrl.rdQLenPdf::25                       0                       # What read queue length does an incoming req see
system.mem_ctrl.rdQLenPdf::26                       0                       # What read queue length does an incoming req see
system.mem_ctrl.rdQLenPdf::27                       0                       # What read queue length does an incoming req see
system.mem_ctrl.rdQLenPdf::28                       0                       # What read queue length does an incoming req see
system.mem_ctrl.rdQLenPdf::29                       0                       # What read queue length does an incoming req see
system.mem_ctrl.rdQLenPdf::30                       0                       # What read queue length does an incoming req see
system.mem_ctrl.rdQLenPdf::31                       0                       # What read queue length does an incoming req see
system.mem_ctrl.wrQLenPdf::0                        1                       # What write queue length does an incoming req see
system.mem_ctrl.wrQLenPdf::1                        1                       # What write queue length does an incoming req see
system.mem_ctrl.wrQLenPdf::2                        1                       # What write queue length does an incoming req see
system.mem_ctrl.wrQLenPdf::3                        1                       # What write queue length does an incoming req see
system.mem_ctrl.wrQLenPdf::4                        1                       # What write queue length does an incoming req see
system.mem_ctrl.wrQLenPdf::5                        1                       # What write queue length does an incoming req see
system.mem_ctrl.wrQLenPdf::6                        1                       # What write queue length does an incoming req see
system.mem_ctrl.wrQLenPdf::7                        1                       # What write queue length does an incoming req see
system.mem_ctrl.wrQLenPdf::8                        1                       # What write queue length does an incoming req see
system.mem_ctrl.wrQLenPdf::9                        1                       # What write queue length does an incoming req see
system.mem_ctrl.wrQLenPdf::10                       1                       # What write queue length does an incoming req see
system.mem_ctrl.wrQLenPdf::11                       1                       # What write queue length does an incoming req see
system.mem_ctrl.wrQLenPdf::12                       1                       # What write queue length does an incoming req see
system.mem_ctrl.wrQLenPdf::13                       1                       # What write queue length does an incoming req see
system.mem_ctrl.wrQLenPdf::14                       1                       # What write queue length does an incoming req see
system.mem_ctrl.wrQLenPdf::15                     219                       # What write queue length does an incoming req see
system.mem_ctrl.wrQLenPdf::16                     239                       # What write queue length does an incoming req see
system.mem_ctrl.wrQLenPdf::17                   80923                       # What write queue length does an incoming req see
system.mem_ctrl.wrQLenPdf::18                   80929                       # What write queue length does an incoming req see
system.mem_ctrl.wrQLenPdf::19                   80931                       # What write queue length does an incoming req see
system.mem_ctrl.wrQLenPdf::20                   80931                       # What write queue length does an incoming req see
system.mem_ctrl.wrQLenPdf::21                   80931                       # What write queue length does an incoming req see
system.mem_ctrl.wrQLenPdf::22                   80931                       # What write queue length does an incoming req see
system.mem_ctrl.wrQLenPdf::23                   80932                       # What write queue length does an incoming req see
system.mem_ctrl.wrQLenPdf::24                   80932                       # What write queue length does an incoming req see
system.mem_ctrl.wrQLenPdf::25                   80930                       # What write queue length does an incoming req see
system.mem_ctrl.wrQLenPdf::26                   80930                       # What write queue length does an incoming req see
system.mem_ctrl.wrQLenPdf::27                   80931                       # What write queue length does an incoming req see
system.mem_ctrl.wrQLenPdf::28                   80934                       # What write queue length does an incoming req see
system.mem_ctrl.wrQLenPdf::29                   80931                       # What write queue length does an incoming req see
system.mem_ctrl.wrQLenPdf::30                   80930                       # What write queue length does an incoming req see
system.mem_ctrl.wrQLenPdf::31                   80930                       # What write queue length does an incoming req see
system.mem_ctrl.wrQLenPdf::32                   80930                       # What write queue length does an incoming req see
system.mem_ctrl.wrQLenPdf::33                       0                       # What write queue length does an incoming req see
system.mem_ctrl.wrQLenPdf::34                       0                       # What write queue length does an incoming req see
system.mem_ctrl.wrQLenPdf::35                       0                       # What write queue length does an incoming req see
system.mem_ctrl.wrQLenPdf::36                       0                       # What write queue length does an incoming req see
system.mem_ctrl.wrQLenPdf::37                       0                       # What write queue length does an incoming req see
system.mem_ctrl.wrQLenPdf::38                       0                       # What write queue length does an incoming req see
system.mem_ctrl.wrQLenPdf::39                       0                       # What write queue length does an incoming req see
system.mem_ctrl.wrQLenPdf::40                       0                       # What write queue length does an incoming req see
system.mem_ctrl.wrQLenPdf::41                       0                       # What write queue length does an incoming req see
system.mem_ctrl.wrQLenPdf::42                       0                       # What write queue length does an incoming req see
system.mem_ctrl.wrQLenPdf::43                       0                       # What write queue length does an incoming req see
system.mem_ctrl.wrQLenPdf::44                       0                       # What write queue length does an incoming req see
system.mem_ctrl.wrQLenPdf::45                       0                       # What write queue length does an incoming req see
system.mem_ctrl.wrQLenPdf::46                       0                       # What write queue length does an incoming req see
system.mem_ctrl.wrQLenPdf::47                       0                       # What write queue length does an incoming req see
system.mem_ctrl.wrQLenPdf::48                       0                       # What write queue length does an incoming req see
system.mem_ctrl.wrQLenPdf::49                       0                       # What write queue length does an incoming req see
system.mem_ctrl.wrQLenPdf::50                       0                       # What write queue length does an incoming req see
system.mem_ctrl.wrQLenPdf::51                       0                       # What write queue length does an incoming req see
system.mem_ctrl.wrQLenPdf::52                       0                       # What write queue length does an incoming req see
system.mem_ctrl.wrQLenPdf::53                       0                       # What write queue length does an incoming req see
system.mem_ctrl.wrQLenPdf::54                       0                       # What write queue length does an incoming req see
system.mem_ctrl.wrQLenPdf::55                       0                       # What write queue length does an incoming req see
system.mem_ctrl.wrQLenPdf::56                       0                       # What write queue length does an incoming req see
system.mem_ctrl.wrQLenPdf::57                       0                       # What write queue length does an incoming req see
system.mem_ctrl.wrQLenPdf::58                       0                       # What write queue length does an incoming req see
system.mem_ctrl.wrQLenPdf::59                       0                       # What write queue length does an incoming req see
system.mem_ctrl.wrQLenPdf::60                       0                       # What write queue length does an incoming req see
system.mem_ctrl.wrQLenPdf::61                       0                       # What write queue length does an incoming req see
system.mem_ctrl.wrQLenPdf::62                       0                       # What write queue length does an incoming req see
system.mem_ctrl.wrQLenPdf::63                       0                       # What write queue length does an incoming req see
system.mem_ctrl.bytesPerActivate::samples      3020940                       # Bytes accessed per row activation
system.mem_ctrl.bytesPerActivate::mean     788.382000                       # Bytes accessed per row activation
system.mem_ctrl.bytesPerActivate::gmean    603.800738                       # Bytes accessed per row activation
system.mem_ctrl.bytesPerActivate::stdev    363.879415                       # Bytes accessed per row activation
system.mem_ctrl.bytesPerActivate::0-127        354628     11.74%     11.74% # Bytes accessed per row activation
system.mem_ctrl.bytesPerActivate::128-255        78456      2.60%     14.34% # Bytes accessed per row activation
system.mem_ctrl.bytesPerActivate::256-383       210633      6.97%     21.31% # Bytes accessed per row activation
system.mem_ctrl.bytesPerActivate::384-511       106651      3.53%     24.84% # Bytes accessed per row activation
system.mem_ctrl.bytesPerActivate::512-639        70446      2.33%     27.17% # Bytes accessed per row activation
system.mem_ctrl.bytesPerActivate::640-767        67659      2.24%     29.41% # Bytes accessed per row activation
system.mem_ctrl.bytesPerActivate::768-895        77495      2.57%     31.98% # Bytes accessed per row activation
system.mem_ctrl.bytesPerActivate::896-1023        97461      3.23%     35.20% # Bytes accessed per row activation
system.mem_ctrl.bytesPerActivate::1024-1151      1957511     64.80%    100.00% # Bytes accessed per row activation
system.mem_ctrl.bytesPerActivate::total       3020940                       # Bytes accessed per row activation
system.mem_ctrl.rdPerTurnAround::samples        80930                       # Reads before turning the bus around for writes
system.mem_ctrl.rdPerTurnAround::mean      443.814395                       # Reads before turning the bus around for writes
system.mem_ctrl.rdPerTurnAround::gmean     190.904087                       # Reads before turning the bus around for writes
system.mem_ctrl.rdPerTurnAround::stdev   48385.395835                       # Reads before turning the bus around for writes
system.mem_ctrl.rdPerTurnAround::0-524287        80929    100.00%    100.00% # Reads before turning the bus around for writes
system.mem_ctrl.rdPerTurnAround::1.36315e+07-1.41558e+07            1      0.00%    100.00% # Reads before turning the bus around for writes
system.mem_ctrl.rdPerTurnAround::total          80930                       # Reads before turning the bus around for writes
system.mem_ctrl.wrPerTurnAround::samples        80930                       # Writes before turning the bus around for reads
system.mem_ctrl.wrPerTurnAround::mean       16.005647                       # Writes before turning the bus around for reads
system.mem_ctrl.wrPerTurnAround::gmean      16.005328                       # Writes before turning the bus around for reads
system.mem_ctrl.wrPerTurnAround::stdev       0.105010                       # Writes before turning the bus around for reads
system.mem_ctrl.wrPerTurnAround::16             80692     99.71%     99.71% # Writes before turning the bus around for reads
system.mem_ctrl.wrPerTurnAround::17                19      0.02%     99.73% # Writes before turning the bus around for reads
system.mem_ctrl.wrPerTurnAround::18               219      0.27%    100.00% # Writes before turning the bus around for reads
system.mem_ctrl.wrPerTurnAround::total          80930                       # Writes before turning the bus around for reads
system.mem_ctrl.totQLat                  321254479108                       # Total ticks spent queuing
system.mem_ctrl.totMemAccLat             926186731942                       # Total ticks spent from burst creation until serviced by the DRAM
system.mem_ctrl.totBusLat                134764624904                       # Total ticks spent in databus transfers
system.mem_ctrl.avgQLat                       8944.09                       # Average queueing delay per DRAM burst
system.mem_ctrl.avgBusLat                     3752.00                       # Average bus latency per DRAM burst
system.mem_ctrl.avgMemAccLat                 25786.09                       # Average memory access latency per DRAM burst
system.mem_ctrl.avgRdBW                       1844.73                       # Average DRAM read bandwidth in MiByte/s
system.mem_ctrl.avgWrBW                         66.53                       # Average achieved write bandwidth in MiByte/s
system.mem_ctrl.avgRdBWSys                    1040.09                       # Average system read bandwidth in MiByte/s
system.mem_ctrl.avgWrBWSys                      23.58                       # Average system write bandwidth in MiByte/s
system.mem_ctrl.peakBW                       17057.00                       # Theoretical peak bandwidth in MiByte/s
system.mem_ctrl.busUtil                         11.21                       # Data bus utilization in percentage
system.mem_ctrl.busUtilRead                     10.82                       # Data bus utilization in percentage for reads
system.mem_ctrl.busUtilWrite                     0.39                       # Data bus utilization in percentage for writes
system.mem_ctrl.avgRdQLen                        1.64                       # Average read queue length when enqueuing
system.mem_ctrl.avgWrQLen                       27.10                       # Average write queue length when enqueuing
system.mem_ctrl.readRowHits                  33035001                       # Number of row buffer hits during reads
system.mem_ctrl.writeRowHits                  1157465                       # Number of row buffer hits during writes
system.mem_ctrl.readRowHitRate                  91.97                       # Row buffer hit rate for reads
system.mem_ctrl.writeRowHitRate                 89.35                       # Row buffer hit rate for writes
system.mem_ctrl.avgGap                       23713.48                       # Average gap between requests
system.mem_ctrl.pageHitRate                     91.88                       # Row buffer hit rate, read and write combined
system.mem_ctrl_0.actEnergy              30526768254.527996                       # Energy for activate commands per rank (pJ)
system.mem_ctrl_0.preEnergy              15067684114.559998                       # Energy for precharge commands per rank (pJ)
system.mem_ctrl_0.readEnergy             234351705246.623962                       # Energy for read commands per rank (pJ)
system.mem_ctrl_0.writeEnergy            3531726863.615999                       # Energy for write commands per rank (pJ)
system.mem_ctrl_0.refreshEnergy          103155426321.023987                       # Energy for refresh commands per rank (pJ)
system.mem_ctrl_0.actBackEnergy          369237253433.663940                       # Energy for active background per rank (pJ)
system.mem_ctrl_0.preBackEnergy          2791897932.264000                       # Energy for precharge background per rank (pJ)
system.mem_ctrl_0.actPowerDownEnergy     284120283489.504028                       # Energy for active power-down per rank (pJ)
system.mem_ctrl_0.prePowerDownEnergy     1240995543.984000                       # Energy for precharge power-down per rank (pJ)
system.mem_ctrl_0.selfRefreshEnergy      3540867.456000                       # Energy for self refresh per rank (pJ)
system.mem_ctrl_0.totalEnergy            1044027282067.223877                       # Total energy per rank (pJ)
system.mem_ctrl_0.averagePower             837.820699                       # Core power per rank (mW)
system.mem_ctrl_0.totalIdleTime          540519627238                       # Total Idle time Per DRAM Rank
system.mem_ctrl_0.memoryStateTime::IDLE     996323323                       # Time in different power states
system.mem_ctrl_0.memoryStateTime::REF    41607292000                       # Time in different power states
system.mem_ctrl_0.memoryStateTime::SREF       9902962                       # Time in different power states
system.mem_ctrl_0.memoryStateTime::PRE_PDN   2404939131                       # Time in different power states
system.mem_ctrl_0.memoryStateTime::ACT   662999075387                       # Time in different power states
system.mem_ctrl_0.memoryStateTime::ACT_PDN 538105035773                       # Time in different power states
system.mem_ctrl_1.actEnergy              1300779829.440000                       # Energy for activate commands per rank (pJ)
system.mem_ctrl_1.preEnergy              642025581.120000                       # Energy for precharge commands per rank (pJ)
system.mem_ctrl_1.readEnergy             3373086465.504000                       # Energy for read commands per rank (pJ)
system.mem_ctrl_1.writeEnergy            3058574735.328000                       # Energy for write commands per rank (pJ)
system.mem_ctrl_1.refreshEnergy          62960211960.576004                       # Energy for refresh commands per rank (pJ)
system.mem_ctrl_1.actBackEnergy          111216813190.559998                       # Energy for active background per rank (pJ)
system.mem_ctrl_1.preBackEnergy          3864280430.976000                       # Energy for precharge background per rank (pJ)
system.mem_ctrl_1.actPowerDownEnergy     103069529218.655991                       # Energy for active power-down per rank (pJ)
system.mem_ctrl_1.prePowerDownEnergy     106807368153.864014                       # Energy for precharge power-down per rank (pJ)
system.mem_ctrl_1.selfRefreshEnergy      161065846349.855988                       # Energy for self refresh per rank (pJ)
system.mem_ctrl_1.totalEnergy            557376927613.968018                       # Total energy per rank (pJ)
system.mem_ctrl_1.averagePower             447.289006                       # Core power per rank (mW)
system.mem_ctrl_1.totalIdleTime          1026745832218                       # Total Idle time Per DRAM Rank
system.mem_ctrl_1.memoryStateTime::IDLE    6223068099                       # Time in different power states
system.mem_ctrl_1.memoryStateTime::REF    25510634000                       # Time in different power states
system.mem_ctrl_1.memoryStateTime::SREF  624547366208                       # Time in different power states
system.mem_ctrl_1.memoryStateTime::PRE_PDN 206991008230                       # Time in different power states
system.mem_ctrl_1.memoryStateTime::ACT   187643034259                       # Time in different power states
system.mem_ctrl_1.memoryStateTime::ACT_PDN 195207457780                       # Time in different power states
system.pwrStateResidencyTicks::UNDEFINED 1246122568576                       # Cumulative time (in ticks) in various power states
system.cpu.branchPred.lookups                      84                       # Number of BP lookups
system.cpu.branchPred.condPredicted                84                       # Number of conditional branches predicted
system.cpu.branchPred.condIncorrect                32                       # Number of conditional branches incorrect
system.cpu.branchPred.BTBLookups                   50                       # Number of BTB lookups
system.cpu.branchPred.BTBHits                       0                       # Number of BTB hits
system.cpu.branchPred.BTBCorrect                    0                       # Number of correct BTB predictions (this stat may not work properly.
system.cpu.branchPred.BTBHitPct              0.000000                       # BTB Hit Percentage
system.cpu.branchPred.usedRAS                       0                       # Number of times the RAS was used to get a target.
system.cpu.branchPred.RASInCorrect                  0                       # Number of incorrect RAS predictions.
system.cpu.branchPred.indirectLookups              50                       # Number of indirect predictor lookups.
system.cpu.branchPred.indirectHits                  0                       # Number of indirect target hits.
system.cpu.branchPred.indirectMisses               50                       # Number of indirect misses.
system.cpu.branchPredindirectMispredicted           17                       # Number of mispredicted indirect branches.
system.cpu.dtb.walker.pwrStateResidencyTicks::UNDEFINED 1246122568576                       # Cumulative time (in ticks) in various power states
system.cpu.dtb.rdAccesses                    26907751                       # TLB accesses on read requests
system.cpu.dtb.wrAccesses                     7334793                       # TLB accesses on write requests
system.cpu.dtb.rdMisses                          2852                       # TLB misses on read requests
system.cpu.dtb.wrMisses                        116850                       # TLB misses on write requests
system.cpu.apic_clk_domain.clock                10672                       # Clock period in ticks
system.cpu.interrupts.pwrStateResidencyTicks::UNDEFINED 1246122568576                       # Cumulative time (in ticks) in various power states
system.cpu.itb.walker.pwrStateResidencyTicks::UNDEFINED 1246122568576                       # Cumulative time (in ticks) in various power states
system.cpu.itb.rdAccesses                           0                       # TLB accesses on read requests
system.cpu.itb.wrAccesses                    18310912                       # TLB accesses on write requests
system.cpu.itb.rdMisses                             0                       # TLB misses on read requests
system.cpu.itb.wrMisses                            90                       # TLB misses on write requests
system.cpu.workload.numSyscalls                    33                       # Number of system calls
system.cpu.pwrStateResidencyTicks::ON    1246122568576                       # Cumulative time (in ticks) in various power states
system.cpu.numCycles                       1868249728                       # number of cpu cycles simulated
system.cpu.numWorkItemsStarted                      0                       # number of work items this cpu started
system.cpu.numWorkItemsCompleted                    0                       # number of work items this cpu completed
system.cpu.committedInsts                    47700244                       # Number of instructions committed
system.cpu.committedOps                      82046706                       # Number of ops (including micro ops) committed
system.cpu.discardedOps                      19102604                       # Number of ops (including micro ops) which were discarded before commit
system.cpu.numFetchSuspends                         0                       # Number of times Execute suspended instruction fetching
system.cpu.cpi                              39.166461                       # CPI: cycles per instruction
system.cpu.ipc                               0.025532                       # IPC: instructions per cycle
system.cpu.op_class_0::No_OpClass                1287      0.00%      0.00% # Class of committed instruction
system.cpu.op_class_0::IntAlu                50852257     61.98%     61.98% # Class of committed instruction
system.cpu.op_class_0::IntMult                   1192      0.00%     61.98% # Class of committed instruction
system.cpu.op_class_0::IntDiv                    1131      0.00%     61.98% # Class of committed instruction
system.cpu.op_class_0::FloatAdd                  2227      0.00%     61.99% # Class of committed instruction
system.cpu.op_class_0::FloatCmp                     0      0.00%     61.99% # Class of committed instruction
system.cpu.op_class_0::FloatCvt                     0      0.00%     61.99% # Class of committed instruction
system.cpu.op_class_0::FloatMult                    0      0.00%     61.99% # Class of committed instruction
system.cpu.op_class_0::FloatMultAcc                 0      0.00%     61.99% # Class of committed instruction
system.cpu.op_class_0::FloatDiv                     0      0.00%     61.99% # Class of committed instruction
system.cpu.op_class_0::FloatMisc                    0      0.00%     61.99% # Class of committed instruction
system.cpu.op_class_0::FloatSqrt                    0      0.00%     61.99% # Class of committed instruction
system.cpu.op_class_0::SimdAdd                      0      0.00%     61.99% # Class of committed instruction
system.cpu.op_class_0::SimdAddAcc                   0      0.00%     61.99% # Class of committed instruction
system.cpu.op_class_0::SimdAlu                      0      0.00%     61.99% # Class of committed instruction
system.cpu.op_class_0::SimdCmp                      0      0.00%     61.99% # Class of committed instruction
system.cpu.op_class_0::SimdCvt                      0      0.00%     61.99% # Class of committed instruction
system.cpu.op_class_0::SimdMisc                     0      0.00%     61.99% # Class of committed instruction
system.cpu.op_class_0::SimdMult                     0      0.00%     61.99% # Class of committed instruction
system.cpu.op_class_0::SimdMultAcc                  0      0.00%     61.99% # Class of committed instruction
system.cpu.op_class_0::SimdShift                    0      0.00%     61.99% # Class of committed instruction
system.cpu.op_class_0::SimdShiftAcc                 0      0.00%     61.99% # Class of committed instruction
system.cpu.op_class_0::SimdSqrt                     0      0.00%     61.99% # Class of committed instruction
system.cpu.op_class_0::SimdFloatAdd                 0      0.00%     61.99% # Class of committed instruction
system.cpu.op_class_0::SimdFloatAlu                 0      0.00%     61.99% # Class of committed instruction
system.cpu.op_class_0::SimdFloatCmp                 0      0.00%     61.99% # Class of committed instruction
system.cpu.op_class_0::SimdFloatCvt                 0      0.00%     61.99% # Class of committed instruction
system.cpu.op_class_0::SimdFloatDiv                 0      0.00%     61.99% # Class of committed instruction
system.cpu.op_class_0::SimdFloatMisc                0      0.00%     61.99% # Class of committed instruction
system.cpu.op_class_0::SimdFloatMult                0      0.00%     61.99% # Class of committed instruction
system.cpu.op_class_0::SimdFloatMultAcc             0      0.00%     61.99% # Class of committed instruction
system.cpu.op_class_0::SimdFloatSqrt                0      0.00%     61.99% # Class of committed instruction
system.cpu.op_class_0::MemRead               23853209     29.07%     91.06% # Class of committed instruction
system.cpu.op_class_0::MemWrite               7334237      8.94%    100.00% # Class of committed instruction
system.cpu.op_class_0::FloatMemRead               782      0.00%    100.00% # Class of committed instruction
system.cpu.op_class_0::FloatMemWrite              384      0.00%    100.00% # Class of committed instruction
system.cpu.op_class_0::IprAccess                    0      0.00%    100.00% # Class of committed instruction
system.cpu.op_class_0::InstPrefetch                 0      0.00%    100.00% # Class of committed instruction
system.cpu.op_class_0::total                 82046706                       # Class of committed instruction
system.cpu.tickCycles                       254481166                       # Number of cycles that the object actually ticked
system.cpu.idleCycles                      1613768562                       # Total number of cycles that the object has spent stopped
system.membus.snoop_filter.tot_requests             0                       # Total number of requests made to the snoop filter.
system.membus.snoop_filter.hit_single_requests            0                       # Number of requests hitting in the snoop filter with a single holder of the requested data.
system.membus.snoop_filter.hit_multi_requests            0                       # Number of requests hitting in the snoop filter with multiple (>1) holders of the requested data.
system.membus.snoop_filter.tot_snoops               0                       # Total number of snoops made to the snoop filter.
system.membus.snoop_filter.hit_single_snoops            0                       # Number of snoops hitting in the snoop filter with a single holder of the requested data.
system.membus.snoop_filter.hit_multi_snoops            0                       # Number of snoops hitting in the snoop filter with multiple (>1) holders of the requested data.
system.membus.pwrStateResidencyTicks::UNDEFINED 1246122568576                       # Cumulative time (in ticks) in various power states
system.membus.trans_dist::ReadReq            45214498                       # Transaction distribution
system.membus.trans_dist::ReadResp           45214497                       # Transaction distribution
system.membus.trans_dist::WriteReq            7334621                       # Transaction distribution
system.membus.trans_dist::WriteResp           7334621                       # Transaction distribution
system.membus.pkt_count_system.cpu.fetch1.icache_port::system.mem_ctrl.port     36621823                       # Packet count per connected master and slave (bytes)
system.membus.pkt_count_system.cpu.fetch1.icache_port::total     36621823                       # Packet count per connected master and slave (bytes)
system.membus.pkt_count_system.cpu.execute.dcache_port::system.mem_ctrl.port     68476414                       # Packet count per connected master and slave (bytes)
system.membus.pkt_count_system.cpu.execute.dcache_port::total     68476414                       # Packet count per connected master and slave (bytes)
system.membus.pkt_count::total              105098237                       # Packet count per connected master and slave (bytes)
system.membus.pkt_size_system.cpu.fetch1.icache_port::system.mem_ctrl.port   1171898304                       # Cumulative packet size per connected master and slave (bytes)
system.membus.pkt_size_system.cpu.fetch1.icache_port::total   1171898304                       # Cumulative packet size per connected master and slave (bytes)
system.membus.pkt_size_system.cpu.execute.dcache_port::system.mem_ctrl.port    153560537                       # Cumulative packet size per connected master and slave (bytes)
system.membus.pkt_size_system.cpu.execute.dcache_port::total    153560537                       # Cumulative packet size per connected master and slave (bytes)
system.membus.pkt_size::total              1325458841                       # Cumulative packet size per connected master and slave (bytes)
system.membus.snoops                                0                       # Total snoops (count)
system.membus.snoopTraffic                          0                       # Total snoop traffic (bytes)
system.membus.snoop_fanout::samples          52549119                       # Request fanout histogram
system.membus.snoop_fanout::mean                    0                       # Request fanout histogram
system.membus.snoop_fanout::stdev                   0                       # Request fanout histogram
system.membus.snoop_fanout::underflows              0      0.00%      0.00% # Request fanout histogram
system.membus.snoop_fanout::0                52549119    100.00%    100.00% # Request fanout histogram
system.membus.snoop_fanout::1                       0      0.00%    100.00% # Request fanout histogram
system.membus.snoop_fanout::overflows               0      0.00%    100.00% # Request fanout histogram
system.membus.snoop_fanout::min_value               0                       # Request fanout histogram
system.membus.snoop_fanout::max_value               0                       # Request fanout histogram
system.membus.snoop_fanout::total            52549119                       # Request fanout histogram
system.membus.reqLayer2.occupancy         39942454580                       # Layer occupancy (ticks)
system.membus.reqLayer2.utilization               3.2                       # Layer utilization (%)
system.membus.respLayer0.occupancy        68731758915                       # Layer occupancy (ticks)
system.membus.respLayer0.utilization              5.5                       # Layer utilization (%)
system.membus.respLayer1.occupancy        47990187460                       # Layer occupancy (ticks)
system.membus.respLayer1.utilization              3.9                       # Layer utilization (%)

---------- End Simulation Statistics   ----------
