
---------- Begin Simulation Statistics ----------
sim_seconds                                  0.017216                       # Number of seconds simulated
sim_ticks                                 17215685000                       # Number of ticks simulated
final_tick                                17215685000                       # Number of ticks from beginning of simulation (restored from checkpoints and never reset)
sim_freq                                 1000000000000                       # Frequency of simulated ticks
host_inst_rate                                 203691                       # Simulator instruction rate (inst/s)
host_op_rate                                   373147                       # Simulator op (including micro ops) rate (op/s)
host_tick_rate                            19450297159                       # Simulator tick rate (ticks/s)
host_mem_usage                                 665088                       # Number of bytes of host memory used
host_seconds                                     0.89                       # Real time elapsed on the host
sim_insts                                      180286                       # Number of instructions simulated
sim_ops                                        330274                       # Number of ops (including micro ops) simulated
system.clk_domain.voltage_domain.voltage            1                       # Voltage in Volts
system.clk_domain.clock                           500                       # Clock period in ticks
system.mem_ctrl.pwrStateResidencyTicks::UNDEFINED  17215685000                       # Cumulative time (in ticks) in various power states
system.mem_ctrl.bytes_read::cpu.inst          1905304                       # Number of bytes read from this memory
system.mem_ctrl.bytes_read::cpu.data           289512                       # Number of bytes read from this memory
system.mem_ctrl.bytes_read::total             2194816                       # Number of bytes read from this memory
system.mem_ctrl.bytes_inst_read::cpu.inst      1905304                       # Number of instructions bytes read from this memory
system.mem_ctrl.bytes_inst_read::total        1905304                       # Number of instructions bytes read from this memory
system.mem_ctrl.bytes_written::cpu.data        106799                       # Number of bytes written to this memory
system.mem_ctrl.bytes_written::total           106799                       # Number of bytes written to this memory
system.mem_ctrl.num_reads::cpu.inst            238163                       # Number of read requests responded to by this memory
system.mem_ctrl.num_reads::cpu.data             55399                       # Number of read requests responded to by this memory
system.mem_ctrl.num_reads::total               293562                       # Number of read requests responded to by this memory
system.mem_ctrl.num_writes::cpu.data            16868                       # Number of write requests responded to by this memory
system.mem_ctrl.num_writes::total               16868                       # Number of write requests responded to by this memory
system.mem_ctrl.bw_read::cpu.inst           110672564                       # Total read bandwidth from this memory (bytes/s)
system.mem_ctrl.bw_read::cpu.data            16816758                       # Total read bandwidth from this memory (bytes/s)
system.mem_ctrl.bw_read::total              127489322                       # Total read bandwidth from this memory (bytes/s)
system.mem_ctrl.bw_inst_read::cpu.inst      110672564                       # Instruction read bandwidth from this memory (bytes/s)
system.mem_ctrl.bw_inst_read::total         110672564                       # Instruction read bandwidth from this memory (bytes/s)
system.mem_ctrl.bw_write::cpu.data            6203587                       # Write bandwidth from this memory (bytes/s)
system.mem_ctrl.bw_write::total               6203587                       # Write bandwidth from this memory (bytes/s)
system.mem_ctrl.bw_total::cpu.inst          110672564                       # Total bandwidth to/from this memory (bytes/s)
system.mem_ctrl.bw_total::cpu.data           23020345                       # Total bandwidth to/from this memory (bytes/s)
system.mem_ctrl.bw_total::total             133692909                       # Total bandwidth to/from this memory (bytes/s)
system.mem_ctrl.readReqs                       293563                       # Number of read requests accepted
system.mem_ctrl.writeReqs                       16868                       # Number of write requests accepted
system.mem_ctrl.readBursts                     293571                       # Number of DRAM read bursts, including those serviced by the write queue
system.mem_ctrl.writeBursts                     16868                       # Number of DRAM write bursts, including those merged in the write queue
system.mem_ctrl.bytesReadDRAM                 9074400                       # Total number of bytes read from DRAM
system.mem_ctrl.bytesReadWrQ                   319872                       # Total number of bytes read from write queue
system.mem_ctrl.bytesWritten                    77760                       # Total number of bytes written to DRAM
system.mem_ctrl.bytesReadSys                  2194824                       # Total read bytes from the system interface side
system.mem_ctrl.bytesWrittenSys                106799                       # Total written bytes from the system interface side
system.mem_ctrl.servicedByWrQ                    9996                       # Number of DRAM read bursts serviced by the write queue
system.mem_ctrl.mergedWrBursts                  14415                       # Number of DRAM write bursts merged with an existing one
system.mem_ctrl.neitherReadNorWriteReqs             0                       # Number of requests that are neither read nor write
system.mem_ctrl.perBankRdBursts::0              80555                       # Per bank write bursts
system.mem_ctrl.perBankRdBursts::1              57966                       # Per bank write bursts
system.mem_ctrl.perBankRdBursts::2              14336                       # Per bank write bursts
system.mem_ctrl.perBankRdBursts::3              35736                       # Per bank write bursts
system.mem_ctrl.perBankRdBursts::4               9736                       # Per bank write bursts
system.mem_ctrl.perBankRdBursts::5              48604                       # Per bank write bursts
system.mem_ctrl.perBankRdBursts::6              30600                       # Per bank write bursts
system.mem_ctrl.perBankRdBursts::7               6042                       # Per bank write bursts
system.mem_ctrl.perBankWrBursts::0                305                       # Per bank write bursts
system.mem_ctrl.perBankWrBursts::1                376                       # Per bank write bursts
system.mem_ctrl.perBankWrBursts::2                723                       # Per bank write bursts
system.mem_ctrl.perBankWrBursts::3                543                       # Per bank write bursts
system.mem_ctrl.perBankWrBursts::4                 80                       # Per bank write bursts
system.mem_ctrl.perBankWrBursts::5                131                       # Per bank write bursts
system.mem_ctrl.perBankWrBursts::6                132                       # Per bank write bursts
system.mem_ctrl.perBankWrBursts::7                140                       # Per bank write bursts
system.mem_ctrl.numRdRetry                          0                       # Number of times read queue was full causing retry
system.mem_ctrl.numWrRetry                          0                       # Number of times write queue was full causing retry
system.mem_ctrl.totGap                    17215607500                       # Total gap between requests
system.mem_ctrl.readPktSize::0                   7382                       # Read request sizes (log2)
system.mem_ctrl.readPktSize::1                   2603                       # Read request sizes (log2)
system.mem_ctrl.readPktSize::2                  21608                       # Read request sizes (log2)
system.mem_ctrl.readPktSize::3                 261978                       # Read request sizes (log2)
system.mem_ctrl.readPktSize::4                      0                       # Read request sizes (log2)
system.mem_ctrl.readPktSize::5                      0                       # Read request sizes (log2)
system.mem_ctrl.writePktSize::0                   103                       # Write request sizes (log2)
system.mem_ctrl.writePktSize::1                    20                       # Write request sizes (log2)
system.mem_ctrl.writePktSize::2                  6826                       # Write request sizes (log2)
system.mem_ctrl.writePktSize::3                  9919                       # Write request sizes (log2)
system.mem_ctrl.writePktSize::4                     0                       # Write request sizes (log2)
system.mem_ctrl.writePktSize::5                     0                       # Write request sizes (log2)
system.mem_ctrl.rdQLenPdf::0                   283558                       # What read queue length does an incoming req see
system.mem_ctrl.rdQLenPdf::1                       17                       # What read queue length does an incoming req see
system.mem_ctrl.rdQLenPdf::2                        0                       # What read queue length does an incoming req see
system.mem_ctrl.rdQLenPdf::3                        0                       # What read queue length does an incoming req see
system.mem_ctrl.rdQLenPdf::4                        0                       # What read queue length does an incoming req see
system.mem_ctrl.rdQLenPdf::5                        0                       # What read queue length does an incoming req see
system.mem_ctrl.rdQLenPdf::6                        0                       # What read queue length does an incoming req see
system.mem_ctrl.rdQLenPdf::7                        0                       # What read queue length does an incoming req see
system.mem_ctrl.rdQLenPdf::8                        0                       # What read queue length does an incoming req see
system.mem_ctrl.rdQLenPdf::9                        0                       # What read queue length does an incoming req see
system.mem_ctrl.rdQLenPdf::10                       0                       # What read queue length does an incoming req see
system.mem_ctrl.rdQLenPdf::11                       0                       # What read queue length does an incoming req see
system.mem_ctrl.rdQLenPdf::12                       0                       # What read queue length does an incoming req see
system.mem_ctrl.rdQLenPdf::13                       0                       # What read queue length does an incoming req see
system.mem_ctrl.rdQLenPdf::14                       0                       # What read queue length does an incoming req see
system.mem_ctrl.rdQLenPdf::15                       0                       # What read queue length does an incoming req see
system.mem_ctrl.rdQLenPdf::16                       0                       # What read queue length does an incoming req see
system.mem_ctrl.rdQLenPdf::17                       0                       # What read queue length does an incoming req see
system.mem_ctrl.rdQLenPdf::18                       0                       # What read queue length does an incoming req see
system.mem_ctrl.rdQLenPdf::19                       0                       # What read queue length does an incoming req see
system.mem_ctrl.rdQLenPdf::20                       0                       # What read queue length does an incoming req see
system.mem_ctrl.rdQLenPdf::21                       0                       # What read queue length does an incoming req see
system.mem_ctrl.rdQLenPdf::22                       0                       # What read queue length does an incoming req see
system.mem_ctrl.rdQLenPdf::23                       0                       # What read queue length does an incoming req see
system.mem_ctrl.rdQLenPdf::24                       0                       # What read queue length does an incoming req see
system.mem_ctrl.rdQLenPdf::25                       0                       # What read queue length does an incoming req see
system.mem_ctrl.rdQLenPdf::26                       0                       # What read queue length does an incoming req see
system.mem_ctrl.rdQLenPdf::27                       0                       # What read queue length does an incoming req see
system.mem_ctrl.rdQLenPdf::28                       0                       # What read queue length does an incoming req see
system.mem_ctrl.rdQLenPdf::29                       0                       # What read queue length does an incoming req see
system.mem_ctrl.rdQLenPdf::30                       0                       # What read queue length does an incoming req see
system.mem_ctrl.rdQLenPdf::31                       0                       # What read queue length does an incoming req see
system.mem_ctrl.wrQLenPdf::0                        1                       # What write queue length does an incoming req see
system.mem_ctrl.wrQLenPdf::1                        1                       # What write queue length does an incoming req see
system.mem_ctrl.wrQLenPdf::2                        1                       # What write queue length does an incoming req see
system.mem_ctrl.wrQLenPdf::3                        1                       # What write queue length does an incoming req see
system.mem_ctrl.wrQLenPdf::4                        1                       # What write queue length does an incoming req see
system.mem_ctrl.wrQLenPdf::5                        1                       # What write queue length does an incoming req see
system.mem_ctrl.wrQLenPdf::6                        1                       # What write queue length does an incoming req see
system.mem_ctrl.wrQLenPdf::7                        1                       # What write queue length does an incoming req see
system.mem_ctrl.wrQLenPdf::8                        1                       # What write queue length does an incoming req see
system.mem_ctrl.wrQLenPdf::9                        1                       # What write queue length does an incoming req see
system.mem_ctrl.wrQLenPdf::10                       1                       # What write queue length does an incoming req see
system.mem_ctrl.wrQLenPdf::11                       1                       # What write queue length does an incoming req see
system.mem_ctrl.wrQLenPdf::12                       1                       # What write queue length does an incoming req see
system.mem_ctrl.wrQLenPdf::13                       1                       # What write queue length does an incoming req see
system.mem_ctrl.wrQLenPdf::14                       1                       # What write queue length does an incoming req see
system.mem_ctrl.wrQLenPdf::15                       5                       # What write queue length does an incoming req see
system.mem_ctrl.wrQLenPdf::16                       7                       # What write queue length does an incoming req see
system.mem_ctrl.wrQLenPdf::17                     152                       # What write queue length does an incoming req see
system.mem_ctrl.wrQLenPdf::18                     152                       # What write queue length does an incoming req see
system.mem_ctrl.wrQLenPdf::19                     152                       # What write queue length does an incoming req see
system.mem_ctrl.wrQLenPdf::20                     153                       # What write queue length does an incoming req see
system.mem_ctrl.wrQLenPdf::21                     153                       # What write queue length does an incoming req see
system.mem_ctrl.wrQLenPdf::22                     152                       # What write queue length does an incoming req see
system.mem_ctrl.wrQLenPdf::23                     153                       # What write queue length does an incoming req see
system.mem_ctrl.wrQLenPdf::24                     151                       # What write queue length does an incoming req see
system.mem_ctrl.wrQLenPdf::25                     151                       # What write queue length does an incoming req see
system.mem_ctrl.wrQLenPdf::26                     151                       # What write queue length does an incoming req see
system.mem_ctrl.wrQLenPdf::27                     151                       # What write queue length does an incoming req see
system.mem_ctrl.wrQLenPdf::28                     151                       # What write queue length does an incoming req see
system.mem_ctrl.wrQLenPdf::29                     151                       # What write queue length does an incoming req see
system.mem_ctrl.wrQLenPdf::30                     151                       # What write queue length does an incoming req see
system.mem_ctrl.wrQLenPdf::31                     151                       # What write queue length does an incoming req see
system.mem_ctrl.wrQLenPdf::32                     151                       # What write queue length does an incoming req see
system.mem_ctrl.wrQLenPdf::33                       0                       # What write queue length does an incoming req see
system.mem_ctrl.wrQLenPdf::34                       0                       # What write queue length does an incoming req see
system.mem_ctrl.wrQLenPdf::35                       0                       # What write queue length does an incoming req see
system.mem_ctrl.wrQLenPdf::36                       0                       # What write queue length does an incoming req see
system.mem_ctrl.wrQLenPdf::37                       0                       # What write queue length does an incoming req see
system.mem_ctrl.wrQLenPdf::38                       0                       # What write queue length does an incoming req see
system.mem_ctrl.wrQLenPdf::39                       0                       # What write queue length does an incoming req see
system.mem_ctrl.wrQLenPdf::40                       0                       # What write queue length does an incoming req see
system.mem_ctrl.wrQLenPdf::41                       0                       # What write queue length does an incoming req see
system.mem_ctrl.wrQLenPdf::42                       0                       # What write queue length does an incoming req see
system.mem_ctrl.wrQLenPdf::43                       0                       # What write queue length does an incoming req see
system.mem_ctrl.wrQLenPdf::44                       0                       # What write queue length does an incoming req see
system.mem_ctrl.wrQLenPdf::45                       0                       # What write queue length does an incoming req see
system.mem_ctrl.wrQLenPdf::46                       0                       # What write queue length does an incoming req see
system.mem_ctrl.wrQLenPdf::47                       0                       # What write queue length does an incoming req see
system.mem_ctrl.wrQLenPdf::48                       0                       # What write queue length does an incoming req see
system.mem_ctrl.wrQLenPdf::49                       0                       # What write queue length does an incoming req see
system.mem_ctrl.wrQLenPdf::50                       0                       # What write queue length does an incoming req see
system.mem_ctrl.wrQLenPdf::51                       0                       # What write queue length does an incoming req see
system.mem_ctrl.wrQLenPdf::52                       0                       # What write queue length does an incoming req see
system.mem_ctrl.wrQLenPdf::53                       0                       # What write queue length does an incoming req see
system.mem_ctrl.wrQLenPdf::54                       0                       # What write queue length does an incoming req see
system.mem_ctrl.wrQLenPdf::55                       0                       # What write queue length does an incoming req see
system.mem_ctrl.wrQLenPdf::56                       0                       # What write queue length does an incoming req see
system.mem_ctrl.wrQLenPdf::57                       0                       # What write queue length does an incoming req see
system.mem_ctrl.wrQLenPdf::58                       0                       # What write queue length does an incoming req see
system.mem_ctrl.wrQLenPdf::59                       0                       # What write queue length does an incoming req see
system.mem_ctrl.wrQLenPdf::60                       0                       # What write queue length does an incoming req see
system.mem_ctrl.wrQLenPdf::61                       0                       # What write queue length does an incoming req see
system.mem_ctrl.wrQLenPdf::62                       0                       # What write queue length does an incoming req see
system.mem_ctrl.wrQLenPdf::63                       0                       # What write queue length does an incoming req see
system.mem_ctrl.bytesPerActivate::samples        38567                       # Bytes accessed per row activation
system.mem_ctrl.bytesPerActivate::mean     237.296341                       # Bytes accessed per row activation
system.mem_ctrl.bytesPerActivate::gmean    144.177644                       # Bytes accessed per row activation
system.mem_ctrl.bytesPerActivate::stdev    197.554494                       # Bytes accessed per row activation
system.mem_ctrl.bytesPerActivate::0-63           9915     25.71%     25.71% # Bytes accessed per row activation
system.mem_ctrl.bytesPerActivate::64-127         6372     16.52%     42.23% # Bytes accessed per row activation
system.mem_ctrl.bytesPerActivate::128-191         3534      9.16%     51.39% # Bytes accessed per row activation
system.mem_ctrl.bytesPerActivate::192-255         3037      7.87%     59.27% # Bytes accessed per row activation
system.mem_ctrl.bytesPerActivate::256-319         2029      5.26%     64.53% # Bytes accessed per row activation
system.mem_ctrl.bytesPerActivate::320-383         1054      2.73%     67.26% # Bytes accessed per row activation
system.mem_ctrl.bytesPerActivate::384-447         1051      2.73%     69.99% # Bytes accessed per row activation
system.mem_ctrl.bytesPerActivate::448-511          906      2.35%     72.34% # Bytes accessed per row activation
system.mem_ctrl.bytesPerActivate::512-575        10669     27.66%    100.00% # Bytes accessed per row activation
system.mem_ctrl.bytesPerActivate::total         38567                       # Bytes accessed per row activation
system.mem_ctrl.rdPerTurnAround::samples          151                       # Reads before turning the bus around for writes
system.mem_ctrl.rdPerTurnAround::mean     1876.980132                       # Reads before turning the bus around for writes
system.mem_ctrl.rdPerTurnAround::stdev    7826.866334                       # Reads before turning the bus around for writes
system.mem_ctrl.rdPerTurnAround::0-4095           144     95.36%     95.36% # Reads before turning the bus around for writes
system.mem_ctrl.rdPerTurnAround::4096-8191            2      1.32%     96.69% # Reads before turning the bus around for writes
system.mem_ctrl.rdPerTurnAround::8192-12287            1      0.66%     97.35% # Reads before turning the bus around for writes
system.mem_ctrl.rdPerTurnAround::12288-16383            1      0.66%     98.01% # Reads before turning the bus around for writes
system.mem_ctrl.rdPerTurnAround::20480-24575            1      0.66%     98.68% # Reads before turning the bus around for writes
system.mem_ctrl.rdPerTurnAround::28672-32767            1      0.66%     99.34% # Reads before turning the bus around for writes
system.mem_ctrl.rdPerTurnAround::86016-90111            1      0.66%    100.00% # Reads before turning the bus around for writes
system.mem_ctrl.rdPerTurnAround::total            151                       # Reads before turning the bus around for writes
system.mem_ctrl.wrPerTurnAround::samples          151                       # Writes before turning the bus around for reads
system.mem_ctrl.wrPerTurnAround::mean       16.092715                       # Writes before turning the bus around for reads
system.mem_ctrl.wrPerTurnAround::gmean      16.083927                       # Writes before turning the bus around for reads
system.mem_ctrl.wrPerTurnAround::stdev       0.569807                       # Writes before turning the bus around for reads
system.mem_ctrl.wrPerTurnAround::16               147     97.35%     97.35% # Writes before turning the bus around for reads
system.mem_ctrl.wrPerTurnAround::19                 2      1.32%     98.68% # Writes before turning the bus around for reads
system.mem_ctrl.wrPerTurnAround::20                 2      1.32%    100.00% # Writes before turning the bus around for reads
system.mem_ctrl.wrPerTurnAround::total            151                       # Writes before turning the bus around for reads
system.mem_ctrl.totQLat                    3335357938                       # Total ticks spent queuing
system.mem_ctrl.totMemAccLat               9715795438                       # Total ticks spent from burst creation until serviced by the DRAM
system.mem_ctrl.totBusLat                  2126812500                       # Total ticks spent in databus transfers
system.mem_ctrl.avgQLat                      11761.82                       # Average queueing delay per DRAM burst
system.mem_ctrl.avgBusLat                     7500.00                       # Average bus latency per DRAM burst
system.mem_ctrl.avgMemAccLat                 34261.82                       # Average memory access latency per DRAM burst
system.mem_ctrl.avgRdBW                        527.10                       # Average DRAM read bandwidth in MiByte/s
system.mem_ctrl.avgWrBW                          4.52                       # Average achieved write bandwidth in MiByte/s
system.mem_ctrl.avgRdBWSys                     127.49                       # Average system read bandwidth in MiByte/s
system.mem_ctrl.avgWrBWSys                       6.20                       # Average system write bandwidth in MiByte/s
system.mem_ctrl.peakBW                        4266.00                       # Theoretical peak bandwidth in MiByte/s
system.mem_ctrl.busUtil                         12.46                       # Data bus utilization in percentage
system.mem_ctrl.busUtilRead                     12.36                       # Data bus utilization in percentage for reads
system.mem_ctrl.busUtilWrite                     0.11                       # Data bus utilization in percentage for writes
system.mem_ctrl.avgRdQLen                        1.00                       # Average read queue length when enqueuing
system.mem_ctrl.avgWrQLen                       27.13                       # Average write queue length when enqueuing
system.mem_ctrl.readRowHits                    245350                       # Number of row buffer hits during reads
system.mem_ctrl.writeRowHits                     2086                       # Number of row buffer hits during writes
system.mem_ctrl.readRowHitRate                  86.52                       # Row buffer hit rate for reads
system.mem_ctrl.writeRowHitRate                 85.04                       # Row buffer hit rate for writes
system.mem_ctrl.avgGap                       55457.11                       # Average gap between requests
system.mem_ctrl.pageHitRate                     86.51                       # Row buffer hit rate, read and write combined
system.mem_ctrl_0.actEnergy              117324352.446000                       # Energy for activate commands per rank (pJ)
system.mem_ctrl_0.preEnergy              41327286.470400                       # Energy for precharge commands per rank (pJ)
system.mem_ctrl_0.readEnergy             487085304.854400                       # Energy for read commands per rank (pJ)
system.mem_ctrl_0.writeEnergy            3747234.960000                       # Energy for write commands per rank (pJ)
system.mem_ctrl_0.refreshEnergy          123067391.580000                       # Energy for refresh commands per rank (pJ)
system.mem_ctrl_0.actBackEnergy          401562116.676000                       # Energy for active background per rank (pJ)
system.mem_ctrl_0.preBackEnergy          7028836.214400                       # Energy for precharge background per rank (pJ)
system.mem_ctrl_0.actPowerDownEnergy     83660002.984320                       # Energy for active power-down per rank (pJ)
system.mem_ctrl_0.prePowerDownEnergy     18626.203680                       # Energy for precharge power-down per rank (pJ)
system.mem_ctrl_0.selfRefreshEnergy                 0                       # Energy for self refresh per rank (pJ)
system.mem_ctrl_0.totalEnergy            1264821152.389200                       # Total energy per rank (pJ)
system.mem_ctrl_0.averagePower              73.469111                       # Core power per rank (mW)
system.mem_ctrl_0.totalIdleTime            7123130250                       # Total Idle time Per DRAM Rank
system.mem_ctrl_0.memoryStateTime::IDLE      14790000                       # Time in different power states
system.mem_ctrl_0.memoryStateTime::REF      576030000                       # Time in different power states
system.mem_ctrl_0.memoryStateTime::SREF             0                       # Time in different power states
system.mem_ctrl_0.memoryStateTime::PRE_PDN      9117160                       # Time in different power states
system.mem_ctrl_0.memoryStateTime::ACT     9501734750                       # Time in different power states
system.mem_ctrl_0.memoryStateTime::ACT_PDN   7114013090                       # Time in different power states
system.pwrStateResidencyTicks::UNDEFINED  17215685000                       # Cumulative time (in ticks) in various power states
system.cpu.dtb.walker.pwrStateResidencyTicks::UNDEFINED  17215685000                       # Cumulative time (in ticks) in various power states
system.cpu.dtb.rdAccesses                       55399                       # TLB accesses on read requests
system.cpu.dtb.wrAccesses                       16868                       # TLB accesses on write requests
system.cpu.dtb.rdMisses                            70                       # TLB misses on read requests
system.cpu.dtb.wrMisses                            17                       # TLB misses on write requests
system.cpu.apic_clk_domain.clock                 8000                       # Clock period in ticks
system.cpu.interrupts.pwrStateResidencyTicks::UNDEFINED  17215685000                       # Cumulative time (in ticks) in various power states
system.cpu.itb.walker.pwrStateResidencyTicks::UNDEFINED  17215685000                       # Cumulative time (in ticks) in various power states
system.cpu.itb.rdAccesses                           0                       # TLB accesses on read requests
system.cpu.itb.wrAccesses                      238164                       # TLB accesses on write requests
system.cpu.itb.rdMisses                             0                       # TLB misses on read requests
system.cpu.itb.wrMisses                            88                       # TLB misses on write requests
system.cpu.workload.numSyscalls                    32                       # Number of system calls
system.cpu.pwrStateResidencyTicks::ON     17215685000                       # Cumulative time (in ticks) in various power states
system.cpu.numCycles                         34431370                       # number of cpu cycles simulated
system.cpu.numWorkItemsStarted                      0                       # number of work items this cpu started
system.cpu.numWorkItemsCompleted                    0                       # number of work items this cpu completed
system.cpu.committedInsts                      180286                       # Number of instructions committed
system.cpu.committedOps                        330274                       # Number of ops (including micro ops) committed
system.cpu.num_int_alu_accesses                326983                       # Number of integer alu accesses
system.cpu.num_fp_alu_accesses                   3447                       # Number of float alu accesses
system.cpu.num_vec_alu_accesses                     0                       # Number of vector alu accesses
system.cpu.num_func_calls                        1354                       # number of times a function call or return occured
system.cpu.num_conditional_control_insts        31515                       # number of instructions that are conditional controls
system.cpu.num_int_insts                       326983                       # number of integer instructions
system.cpu.num_fp_insts                          3447                       # number of float instructions
system.cpu.num_vec_insts                            0                       # number of vector instructions
system.cpu.num_int_register_reads              646209                       # number of times the integer registers were read
system.cpu.num_int_register_writes             277717                       # number of times the integer registers were written
system.cpu.num_fp_register_reads                 5525                       # number of times the floating registers were read
system.cpu.num_fp_register_writes                2660                       # number of times the floating registers were written
system.cpu.num_vec_register_reads                   0                       # number of times the vector registers were read
system.cpu.num_vec_register_writes                  0                       # number of times the vector registers were written
system.cpu.num_cc_register_reads               192826                       # number of times the CC registers were read
system.cpu.num_cc_register_writes              133379                       # number of times the CC registers were written
system.cpu.num_mem_refs                         72258                       # number of memory refs
system.cpu.num_load_insts                       55390                       # Number of load instructions
system.cpu.num_store_insts                      16868                       # Number of store instructions
system.cpu.num_idle_cycles                          0                       # Number of idle cycles
system.cpu.num_busy_cycles                   34431370                       # Number of busy cycles
system.cpu.not_idle_fraction                        1                       # Percentage of non-idle cycles
system.cpu.idle_fraction                            0                       # Percentage of idle cycles
system.cpu.Branches                             34663                       # Number of branches fetched
system.cpu.op_class::No_OpClass                  1287      0.39%      0.39% # Class of executed instruction
system.cpu.op_class::IntAlu                    253310     76.70%     77.09% # Class of executed instruction
system.cpu.op_class::IntMult                       61      0.02%     77.11% # Class of executed instruction
system.cpu.op_class::IntDiv                      1131      0.34%     77.45% # Class of executed instruction
system.cpu.op_class::FloatAdd                    2227      0.67%     78.12% # Class of executed instruction
system.cpu.op_class::FloatCmp                       0      0.00%     78.12% # Class of executed instruction
system.cpu.op_class::FloatCvt                       0      0.00%     78.12% # Class of executed instruction
system.cpu.op_class::FloatMult                      0      0.00%     78.12% # Class of executed instruction
system.cpu.op_class::FloatMultAcc                   0      0.00%     78.12% # Class of executed instruction
system.cpu.op_class::FloatDiv                       0      0.00%     78.12% # Class of executed instruction
system.cpu.op_class::FloatMisc                      0      0.00%     78.12% # Class of executed instruction
system.cpu.op_class::FloatSqrt                      0      0.00%     78.12% # Class of executed instruction
system.cpu.op_class::SimdAdd                        0      0.00%     78.12% # Class of executed instruction
system.cpu.op_class::SimdAddAcc                     0      0.00%     78.12% # Class of executed instruction
system.cpu.op_class::SimdAlu                        0      0.00%     78.12% # Class of executed instruction
system.cpu.op_class::SimdCmp                        0      0.00%     78.12% # Class of executed instruction
system.cpu.op_class::SimdCvt                        0      0.00%     78.12% # Class of executed instruction
system.cpu.op_class::SimdMisc                       0      0.00%     78.12% # Class of executed instruction
system.cpu.op_class::SimdMult                       0      0.00%     78.12% # Class of executed instruction
system.cpu.op_class::SimdMultAcc                    0      0.00%     78.12% # Class of executed instruction
system.cpu.op_class::SimdShift                      0      0.00%     78.12% # Class of executed instruction
system.cpu.op_class::SimdShiftAcc                   0      0.00%     78.12% # Class of executed instruction
system.cpu.op_class::SimdSqrt                       0      0.00%     78.12% # Class of executed instruction
system.cpu.op_class::SimdFloatAdd                   0      0.00%     78.12% # Class of executed instruction
system.cpu.op_class::SimdFloatAlu                   0      0.00%     78.12% # Class of executed instruction
system.cpu.op_class::SimdFloatCmp                   0      0.00%     78.12% # Class of executed instruction
system.cpu.op_class::SimdFloatCvt                   0      0.00%     78.12% # Class of executed instruction
system.cpu.op_class::SimdFloatDiv                   0      0.00%     78.12% # Class of executed instruction
system.cpu.op_class::SimdFloatMisc                  0      0.00%     78.12% # Class of executed instruction
system.cpu.op_class::SimdFloatMult                  0      0.00%     78.12% # Class of executed instruction
system.cpu.op_class::SimdFloatMultAcc               0      0.00%     78.12% # Class of executed instruction
system.cpu.op_class::SimdFloatSqrt                  0      0.00%     78.12% # Class of executed instruction
system.cpu.op_class::MemRead                    54608     16.53%     94.66% # Class of executed instruction
system.cpu.op_class::MemWrite                   16484      4.99%     99.65% # Class of executed instruction
system.cpu.op_class::FloatMemRead                 782      0.24%     99.88% # Class of executed instruction
system.cpu.op_class::FloatMemWrite                384      0.12%    100.00% # Class of executed instruction
system.cpu.op_class::IprAccess                      0      0.00%    100.00% # Class of executed instruction
system.cpu.op_class::InstPrefetch                   0      0.00%    100.00% # Class of executed instruction
system.cpu.op_class::total                     330274                       # Class of executed instruction
system.membus.snoop_filter.tot_requests             0                       # Total number of requests made to the snoop filter.
system.membus.snoop_filter.hit_single_requests            0                       # Number of requests hitting in the snoop filter with a single holder of the requested data.
system.membus.snoop_filter.hit_multi_requests            0                       # Number of requests hitting in the snoop filter with multiple (>1) holders of the requested data.
system.membus.snoop_filter.tot_snoops               0                       # Total number of snoops made to the snoop filter.
system.membus.snoop_filter.hit_single_snoops            0                       # Number of snoops hitting in the snoop filter with a single holder of the requested data.
system.membus.snoop_filter.hit_multi_snoops            0                       # Number of snoops hitting in the snoop filter with multiple (>1) holders of the requested data.
system.membus.pwrStateResidencyTicks::UNDEFINED  17215685000                       # Cumulative time (in ticks) in various power states
system.membus.trans_dist::ReadReq              293563                       # Transaction distribution
system.membus.trans_dist::ReadResp             293562                       # Transaction distribution
system.membus.trans_dist::WriteReq              16868                       # Transaction distribution
system.membus.trans_dist::WriteResp             16868                       # Transaction distribution
system.membus.pkt_count_system.cpu.icache_port::system.mem_ctrl.port       476327                       # Packet count per connected master and slave (bytes)
system.membus.pkt_count_system.cpu.icache_port::total       476327                       # Packet count per connected master and slave (bytes)
system.membus.pkt_count_system.cpu.dcache_port::system.mem_ctrl.port       144534                       # Packet count per connected master and slave (bytes)
system.membus.pkt_count_system.cpu.dcache_port::total       144534                       # Packet count per connected master and slave (bytes)
system.membus.pkt_count::total                 620861                       # Packet count per connected master and slave (bytes)
system.membus.pkt_size_system.cpu.icache_port::system.mem_ctrl.port      1905304                       # Cumulative packet size per connected master and slave (bytes)
system.membus.pkt_size_system.cpu.icache_port::total      1905304                       # Cumulative packet size per connected master and slave (bytes)
system.membus.pkt_size_system.cpu.dcache_port::system.mem_ctrl.port       396311                       # Cumulative packet size per connected master and slave (bytes)
system.membus.pkt_size_system.cpu.dcache_port::total       396311                       # Cumulative packet size per connected master and slave (bytes)
system.membus.pkt_size::total                 2301615                       # Cumulative packet size per connected master and slave (bytes)
system.membus.snoops                                0                       # Total snoops (count)
system.membus.snoopTraffic                          0                       # Total snoop traffic (bytes)
system.membus.snoop_fanout::samples            310431                       # Request fanout histogram
system.membus.snoop_fanout::mean                    0                       # Request fanout histogram
system.membus.snoop_fanout::stdev                   0                       # Request fanout histogram
system.membus.snoop_fanout::underflows              0      0.00%      0.00% # Request fanout histogram
system.membus.snoop_fanout::0                  310431    100.00%    100.00% # Request fanout histogram
system.membus.snoop_fanout::1                       0      0.00%    100.00% # Request fanout histogram
system.membus.snoop_fanout::overflows               0      0.00%    100.00% # Request fanout histogram
system.membus.snoop_fanout::min_value               0                       # Request fanout histogram
system.membus.snoop_fanout::max_value               0                       # Request fanout histogram
system.membus.snoop_fanout::total              310431                       # Request fanout histogram
system.membus.reqLayer2.occupancy           163649500                       # Layer occupancy (ticks)
system.membus.reqLayer2.utilization               1.0                       # Layer utilization (%)
system.membus.respLayer0.occupancy          238367230                       # Layer occupancy (ticks)
system.membus.respLayer0.utilization              1.4                       # Layer utilization (%)
system.membus.respLayer1.occupancy           63869832                       # Layer occupancy (ticks)
system.membus.respLayer1.utilization              0.4                       # Layer utilization (%)

---------- End Simulation Statistics   ----------
