
---------- Begin Simulation Statistics ----------
sim_seconds                                  0.005587                       # Number of seconds simulated
sim_ticks                                  5587056500                       # Number of ticks simulated
final_tick                                 5587056500                       # Number of ticks from beginning of simulation (restored from checkpoints and never reset)
sim_freq                                 1000000000000                       # Frequency of simulated ticks
host_inst_rate                                 102659                       # Simulator instruction rate (inst/s)
host_op_rate                                   188065                       # Simulator op (including micro ops) rate (op/s)
host_tick_rate                             3181379185                       # Simulator tick rate (ticks/s)
host_mem_usage                                 668416                       # Number of bytes of host memory used
host_seconds                                     1.76                       # Real time elapsed on the host
sim_insts                                      180286                       # Number of instructions simulated
sim_ops                                        330274                       # Number of ops (including micro ops) simulated
system.clk_domain.voltage_domain.voltage            1                       # Voltage in Volts
system.clk_domain.clock                           500                       # Clock period in ticks
system.mem_ctrl.pwrStateResidencyTicks::UNDEFINED   5587056500                       # Cumulative time (in ticks) in various power states
system.mem_ctrl.bytes_read::cpu.inst          4304896                       # Number of bytes read from this memory
system.mem_ctrl.bytes_read::cpu.data           344698                       # Number of bytes read from this memory
system.mem_ctrl.bytes_read::total             4649594                       # Number of bytes read from this memory
system.mem_ctrl.bytes_inst_read::cpu.inst      4304896                       # Number of instructions bytes read from this memory
system.mem_ctrl.bytes_inst_read::total        4304896                       # Number of instructions bytes read from this memory
system.mem_ctrl.bytes_written::cpu.data        106799                       # Number of bytes written to this memory
system.mem_ctrl.bytes_written::total           106799                       # Number of bytes written to this memory
system.mem_ctrl.num_reads::cpu.inst             67264                       # Number of read requests responded to by this memory
system.mem_ctrl.num_reads::cpu.data             63852                       # Number of read requests responded to by this memory
system.mem_ctrl.num_reads::total               131116                       # Number of read requests responded to by this memory
system.mem_ctrl.num_writes::cpu.data            16868                       # Number of write requests responded to by this memory
system.mem_ctrl.num_writes::total               16868                       # Number of write requests responded to by this memory
system.mem_ctrl.bw_read::cpu.inst           770512344                       # Total read bandwidth from this memory (bytes/s)
system.mem_ctrl.bw_read::cpu.data            61695814                       # Total read bandwidth from this memory (bytes/s)
system.mem_ctrl.bw_read::total              832208158                       # Total read bandwidth from this memory (bytes/s)
system.mem_ctrl.bw_inst_read::cpu.inst      770512344                       # Instruction read bandwidth from this memory (bytes/s)
system.mem_ctrl.bw_inst_read::total         770512344                       # Instruction read bandwidth from this memory (bytes/s)
system.mem_ctrl.bw_write::cpu.data           19115432                       # Write bandwidth from this memory (bytes/s)
system.mem_ctrl.bw_write::total              19115432                       # Write bandwidth from this memory (bytes/s)
system.mem_ctrl.bw_total::cpu.inst          770512344                       # Total bandwidth to/from this memory (bytes/s)
system.mem_ctrl.bw_total::cpu.data           80811246                       # Total bandwidth to/from this memory (bytes/s)
system.mem_ctrl.bw_total::total             851323591                       # Total bandwidth to/from this memory (bytes/s)
system.mem_ctrl.readReqs                       131117                       # Number of read requests accepted
system.mem_ctrl.writeReqs                       16868                       # Number of write requests accepted
system.mem_ctrl.readBursts                     198391                       # Number of DRAM read bursts, including those serviced by the write queue
system.mem_ctrl.writeBursts                     16868                       # Number of DRAM write bursts, including those merged in the write queue
system.mem_ctrl.bytesReadDRAM                 6001888                       # Total number of bytes read from DRAM
system.mem_ctrl.bytesReadWrQ                   346624                       # Total number of bytes read from write queue
system.mem_ctrl.bytesWritten                    77312                       # Total number of bytes written to DRAM
system.mem_ctrl.bytesReadSys                  4649658                       # Total read bytes from the system interface side
system.mem_ctrl.bytesWrittenSys                106799                       # Total written bytes from the system interface side
system.mem_ctrl.servicedByWrQ                   10832                       # Number of DRAM read bursts serviced by the write queue
system.mem_ctrl.mergedWrBursts                  14420                       # Number of DRAM write bursts merged with an existing one
system.mem_ctrl.neitherReadNorWriteReqs             0                       # Number of requests that are neither read nor write
system.mem_ctrl.perBankRdBursts::0              60921                       # Per bank write bursts
system.mem_ctrl.perBankRdBursts::1              36736                       # Per bank write bursts
system.mem_ctrl.perBankRdBursts::2              11634                       # Per bank write bursts
system.mem_ctrl.perBankRdBursts::3              21618                       # Per bank write bursts
system.mem_ctrl.perBankRdBursts::4               7664                       # Per bank write bursts
system.mem_ctrl.perBankRdBursts::5              25920                       # Per bank write bursts
system.mem_ctrl.perBankRdBursts::6              16839                       # Per bank write bursts
system.mem_ctrl.perBankRdBursts::7               6227                       # Per bank write bursts
system.mem_ctrl.perBankWrBursts::0                303                       # Per bank write bursts
system.mem_ctrl.perBankWrBursts::1                379                       # Per bank write bursts
system.mem_ctrl.perBankWrBursts::2                689                       # Per bank write bursts
system.mem_ctrl.perBankWrBursts::3                557                       # Per bank write bursts
system.mem_ctrl.perBankWrBursts::4                 81                       # Per bank write bursts
system.mem_ctrl.perBankWrBursts::5                131                       # Per bank write bursts
system.mem_ctrl.perBankWrBursts::6                135                       # Per bank write bursts
system.mem_ctrl.perBankWrBursts::7                141                       # Per bank write bursts
system.mem_ctrl.numRdRetry                          0                       # Number of times read queue was full causing retry
system.mem_ctrl.numWrRetry                          0                       # Number of times write queue was full causing retry
system.mem_ctrl.totGap                     5587053000                       # Total gap between requests
system.mem_ctrl.readPktSize::0                   7590                       # Read request sizes (log2)
system.mem_ctrl.readPktSize::1                   2622                       # Read request sizes (log2)
system.mem_ctrl.readPktSize::2                  24325                       # Read request sizes (log2)
system.mem_ctrl.readPktSize::3                  29324                       # Read request sizes (log2)
system.mem_ctrl.readPktSize::4                      0                       # Read request sizes (log2)
system.mem_ctrl.readPktSize::5                 134530                       # Read request sizes (log2)
system.mem_ctrl.writePktSize::0                   103                       # Write request sizes (log2)
system.mem_ctrl.writePktSize::1                    20                       # Write request sizes (log2)
system.mem_ctrl.writePktSize::2                  6826                       # Write request sizes (log2)
system.mem_ctrl.writePktSize::3                  9919                       # Write request sizes (log2)
system.mem_ctrl.writePktSize::4                     0                       # Write request sizes (log2)
system.mem_ctrl.writePktSize::5                     0                       # Write request sizes (log2)
system.mem_ctrl.rdQLenPdf::0                    71945                       # What read queue length does an incoming req see
system.mem_ctrl.rdQLenPdf::1                    67869                       # What read queue length does an incoming req see
system.mem_ctrl.rdQLenPdf::2                    43839                       # What read queue length does an incoming req see
system.mem_ctrl.rdQLenPdf::3                     3900                       # What read queue length does an incoming req see
system.mem_ctrl.rdQLenPdf::4                        6                       # What read queue length does an incoming req see
system.mem_ctrl.rdQLenPdf::5                        0                       # What read queue length does an incoming req see
system.mem_ctrl.rdQLenPdf::6                        0                       # What read queue length does an incoming req see
system.mem_ctrl.rdQLenPdf::7                        0                       # What read queue length does an incoming req see
system.mem_ctrl.rdQLenPdf::8                        0                       # What read queue length does an incoming req see
system.mem_ctrl.rdQLenPdf::9                        0                       # What read queue length does an incoming req see
system.mem_ctrl.rdQLenPdf::10                       0                       # What read queue length does an incoming req see
system.mem_ctrl.rdQLenPdf::11                       0                       # What read queue length does an incoming req see
system.mem_ctrl.rdQLenPdf::12                       0                       # What read queue length does an incoming req see
system.mem_ctrl.rdQLenPdf::13                       0                       # What read queue length does an incoming req see
system.mem_ctrl.rdQLenPdf::14                       0                       # What read queue length does an incoming req see
system.mem_ctrl.rdQLenPdf::15                       0                       # What read queue length does an incoming req see
system.mem_ctrl.rdQLenPdf::16                       0                       # What read queue length does an incoming req see
system.mem_ctrl.rdQLenPdf::17                       0                       # What read queue length does an incoming req see
system.mem_ctrl.rdQLenPdf::18                       0                       # What read queue length does an incoming req see
system.mem_ctrl.rdQLenPdf::19                       0                       # What read queue length does an incoming req see
system.mem_ctrl.rdQLenPdf::20                       0                       # What read queue length does an incoming req see
system.mem_ctrl.rdQLenPdf::21                       0                       # What read queue length does an incoming req see
system.mem_ctrl.rdQLenPdf::22                       0                       # What read queue length does an incoming req see
system.mem_ctrl.rdQLenPdf::23                       0                       # What read queue length does an incoming req see
system.mem_ctrl.rdQLenPdf::24                       0                       # What read queue length does an incoming req see
system.mem_ctrl.rdQLenPdf::25                       0                       # What read queue length does an incoming req see
system.mem_ctrl.rdQLenPdf::26                       0                       # What read queue length does an incoming req see
system.mem_ctrl.rdQLenPdf::27                       0                       # What read queue length does an incoming req see
system.mem_ctrl.rdQLenPdf::28                       0                       # What read queue length does an incoming req see
system.mem_ctrl.rdQLenPdf::29                       0                       # What read queue length does an incoming req see
system.mem_ctrl.rdQLenPdf::30                       0                       # What read queue length does an incoming req see
system.mem_ctrl.rdQLenPdf::31                       0                       # What read queue length does an incoming req see
system.mem_ctrl.wrQLenPdf::0                        1                       # What write queue length does an incoming req see
system.mem_ctrl.wrQLenPdf::1                        1                       # What write queue length does an incoming req see
system.mem_ctrl.wrQLenPdf::2                        1                       # What write queue length does an incoming req see
system.mem_ctrl.wrQLenPdf::3                        1                       # What write queue length does an incoming req see
system.mem_ctrl.wrQLenPdf::4                        1                       # What write queue length does an incoming req see
system.mem_ctrl.wrQLenPdf::5                        1                       # What write queue length does an incoming req see
system.mem_ctrl.wrQLenPdf::6                        1                       # What write queue length does an incoming req see
system.mem_ctrl.wrQLenPdf::7                        1                       # What write queue length does an incoming req see
system.mem_ctrl.wrQLenPdf::8                        1                       # What write queue length does an incoming req see
system.mem_ctrl.wrQLenPdf::9                        1                       # What write queue length does an incoming req see
system.mem_ctrl.wrQLenPdf::10                       1                       # What write queue length does an incoming req see
system.mem_ctrl.wrQLenPdf::11                       1                       # What write queue length does an incoming req see
system.mem_ctrl.wrQLenPdf::12                       1                       # What write queue length does an incoming req see
system.mem_ctrl.wrQLenPdf::13                       1                       # What write queue length does an incoming req see
system.mem_ctrl.wrQLenPdf::14                       1                       # What write queue length does an incoming req see
system.mem_ctrl.wrQLenPdf::15                       1                       # What write queue length does an incoming req see
system.mem_ctrl.wrQLenPdf::16                       1                       # What write queue length does an incoming req see
system.mem_ctrl.wrQLenPdf::17                     139                       # What write queue length does an incoming req see
system.mem_ctrl.wrQLenPdf::18                     147                       # What write queue length does an incoming req see
system.mem_ctrl.wrQLenPdf::19                     150                       # What write queue length does an incoming req see
system.mem_ctrl.wrQLenPdf::20                     152                       # What write queue length does an incoming req see
system.mem_ctrl.wrQLenPdf::21                     152                       # What write queue length does an incoming req see
system.mem_ctrl.wrQLenPdf::22                     152                       # What write queue length does an incoming req see
system.mem_ctrl.wrQLenPdf::23                     155                       # What write queue length does an incoming req see
system.mem_ctrl.wrQLenPdf::24                     154                       # What write queue length does an incoming req see
system.mem_ctrl.wrQLenPdf::25                     153                       # What write queue length does an incoming req see
system.mem_ctrl.wrQLenPdf::26                     152                       # What write queue length does an incoming req see
system.mem_ctrl.wrQLenPdf::27                     155                       # What write queue length does an incoming req see
system.mem_ctrl.wrQLenPdf::28                     154                       # What write queue length does an incoming req see
system.mem_ctrl.wrQLenPdf::29                     157                       # What write queue length does an incoming req see
system.mem_ctrl.wrQLenPdf::30                     153                       # What write queue length does an incoming req see
system.mem_ctrl.wrQLenPdf::31                     153                       # What write queue length does an incoming req see
system.mem_ctrl.wrQLenPdf::32                     151                       # What write queue length does an incoming req see
system.mem_ctrl.wrQLenPdf::33                       2                       # What write queue length does an incoming req see
system.mem_ctrl.wrQLenPdf::34                       0                       # What write queue length does an incoming req see
system.mem_ctrl.wrQLenPdf::35                       0                       # What write queue length does an incoming req see
system.mem_ctrl.wrQLenPdf::36                       0                       # What write queue length does an incoming req see
system.mem_ctrl.wrQLenPdf::37                       0                       # What write queue length does an incoming req see
system.mem_ctrl.wrQLenPdf::38                       0                       # What write queue length does an incoming req see
system.mem_ctrl.wrQLenPdf::39                       0                       # What write queue length does an incoming req see
system.mem_ctrl.wrQLenPdf::40                       0                       # What write queue length does an incoming req see
system.mem_ctrl.wrQLenPdf::41                       0                       # What write queue length does an incoming req see
system.mem_ctrl.wrQLenPdf::42                       0                       # What write queue length does an incoming req see
system.mem_ctrl.wrQLenPdf::43                       0                       # What write queue length does an incoming req see
system.mem_ctrl.wrQLenPdf::44                       0                       # What write queue length does an incoming req see
system.mem_ctrl.wrQLenPdf::45                       0                       # What write queue length does an incoming req see
system.mem_ctrl.wrQLenPdf::46                       0                       # What write queue length does an incoming req see
system.mem_ctrl.wrQLenPdf::47                       0                       # What write queue length does an incoming req see
system.mem_ctrl.wrQLenPdf::48                       0                       # What write queue length does an incoming req see
system.mem_ctrl.wrQLenPdf::49                       0                       # What write queue length does an incoming req see
system.mem_ctrl.wrQLenPdf::50                       0                       # What write queue length does an incoming req see
system.mem_ctrl.wrQLenPdf::51                       0                       # What write queue length does an incoming req see
system.mem_ctrl.wrQLenPdf::52                       0                       # What write queue length does an incoming req see
system.mem_ctrl.wrQLenPdf::53                       0                       # What write queue length does an incoming req see
system.mem_ctrl.wrQLenPdf::54                       0                       # What write queue length does an incoming req see
system.mem_ctrl.wrQLenPdf::55                       0                       # What write queue length does an incoming req see
system.mem_ctrl.wrQLenPdf::56                       0                       # What write queue length does an incoming req see
system.mem_ctrl.wrQLenPdf::57                       0                       # What write queue length does an incoming req see
system.mem_ctrl.wrQLenPdf::58                       0                       # What write queue length does an incoming req see
system.mem_ctrl.wrQLenPdf::59                       0                       # What write queue length does an incoming req see
system.mem_ctrl.wrQLenPdf::60                       0                       # What write queue length does an incoming req see
system.mem_ctrl.wrQLenPdf::61                       0                       # What write queue length does an incoming req see
system.mem_ctrl.wrQLenPdf::62                       0                       # What write queue length does an incoming req see
system.mem_ctrl.wrQLenPdf::63                       0                       # What write queue length does an incoming req see
system.mem_ctrl.bytesPerActivate::samples        28584                       # Bytes accessed per row activation
system.mem_ctrl.bytesPerActivate::mean     212.666107                       # Bytes accessed per row activation
system.mem_ctrl.bytesPerActivate::gmean    125.553275                       # Bytes accessed per row activation
system.mem_ctrl.bytesPerActivate::stdev    190.311976                       # Bytes accessed per row activation
system.mem_ctrl.bytesPerActivate::0-63           8545     29.89%     29.89% # Bytes accessed per row activation
system.mem_ctrl.bytesPerActivate::64-127         4208     14.72%     44.62% # Bytes accessed per row activation
system.mem_ctrl.bytesPerActivate::128-191         2746      9.61%     54.22% # Bytes accessed per row activation
system.mem_ctrl.bytesPerActivate::192-255         2394      8.38%     62.60% # Bytes accessed per row activation
system.mem_ctrl.bytesPerActivate::256-319         2120      7.42%     70.01% # Bytes accessed per row activation
system.mem_ctrl.bytesPerActivate::320-383          673      2.35%     72.37% # Bytes accessed per row activation
system.mem_ctrl.bytesPerActivate::384-447          730      2.55%     74.92% # Bytes accessed per row activation
system.mem_ctrl.bytesPerActivate::448-511          841      2.94%     77.87% # Bytes accessed per row activation
system.mem_ctrl.bytesPerActivate::512-575         6327     22.13%    100.00% # Bytes accessed per row activation
system.mem_ctrl.bytesPerActivate::total         28584                       # Bytes accessed per row activation
system.mem_ctrl.rdPerTurnAround::samples          151                       # Reads before turning the bus around for writes
system.mem_ctrl.rdPerTurnAround::mean     1240.278146                       # Reads before turning the bus around for writes
system.mem_ctrl.rdPerTurnAround::gmean     406.969373                       # Reads before turning the bus around for writes
system.mem_ctrl.rdPerTurnAround::stdev    6002.274565                       # Reads before turning the bus around for writes
system.mem_ctrl.rdPerTurnAround::0-4095           146     96.69%     96.69% # Reads before turning the bus around for writes
system.mem_ctrl.rdPerTurnAround::4096-8191            1      0.66%     97.35% # Reads before turning the bus around for writes
system.mem_ctrl.rdPerTurnAround::8192-12287            1      0.66%     98.01% # Reads before turning the bus around for writes
system.mem_ctrl.rdPerTurnAround::12288-16383            1      0.66%     98.68% # Reads before turning the bus around for writes
system.mem_ctrl.rdPerTurnAround::16384-20479            1      0.66%     99.34% # Reads before turning the bus around for writes
system.mem_ctrl.rdPerTurnAround::69632-73727            1      0.66%    100.00% # Reads before turning the bus around for writes
system.mem_ctrl.rdPerTurnAround::total            151                       # Reads before turning the bus around for writes
system.mem_ctrl.wrPerTurnAround::samples          151                       # Writes before turning the bus around for reads
system.mem_ctrl.wrPerTurnAround::mean              16                       # Writes before turning the bus around for reads
system.mem_ctrl.wrPerTurnAround::gmean      16.000000                       # Writes before turning the bus around for reads
system.mem_ctrl.wrPerTurnAround::16               151    100.00%    100.00% # Writes before turning the bus around for reads
system.mem_ctrl.wrPerTurnAround::total            151                       # Writes before turning the bus around for reads
system.mem_ctrl.totQLat                    3776931796                       # Total ticks spent queuing
system.mem_ctrl.totMemAccLat               7997009296                       # Total ticks spent from burst creation until serviced by the DRAM
system.mem_ctrl.totBusLat                  1406692500                       # Total ticks spent in databus transfers
system.mem_ctrl.avgQLat                      20137.30                       # Average queueing delay per DRAM burst
system.mem_ctrl.avgBusLat                     7500.00                       # Average bus latency per DRAM burst
system.mem_ctrl.avgMemAccLat                 42637.30                       # Average memory access latency per DRAM burst
system.mem_ctrl.avgRdBW                       1074.25                       # Average DRAM read bandwidth in MiByte/s
system.mem_ctrl.avgWrBW                         13.84                       # Average achieved write bandwidth in MiByte/s
system.mem_ctrl.avgRdBWSys                     832.22                       # Average system read bandwidth in MiByte/s
system.mem_ctrl.avgWrBWSys                      19.12                       # Average system write bandwidth in MiByte/s
system.mem_ctrl.peakBW                        4266.00                       # Theoretical peak bandwidth in MiByte/s
system.mem_ctrl.busUtil                         25.51                       # Data bus utilization in percentage
system.mem_ctrl.busUtilRead                     25.18                       # Data bus utilization in percentage for reads
system.mem_ctrl.busUtilWrite                     0.32                       # Data bus utilization in percentage for writes
system.mem_ctrl.avgRdQLen                        2.53                       # Average read queue length when enqueuing
system.mem_ctrl.avgWrQLen                       27.12                       # Average write queue length when enqueuing
system.mem_ctrl.readRowHits                    159283                       # Number of row buffer hits during reads
system.mem_ctrl.writeRowHits                     2106                       # Number of row buffer hits during writes
system.mem_ctrl.readRowHitRate                  84.92                       # Row buffer hit rate for reads
system.mem_ctrl.writeRowHitRate                 86.03                       # Row buffer hit rate for writes
system.mem_ctrl.avgGap                       37754.18                       # Average gap between requests
system.mem_ctrl.pageHitRate                     84.94                       # Row buffer hit rate, read and write combined
system.mem_ctrl_0.actEnergy              86956725.324000                       # Energy for activate commands per rank (pJ)
system.mem_ctrl_0.preEnergy              30629791.180800                       # Energy for precharge commands per rank (pJ)
system.mem_ctrl_0.readEnergy             322160206.939200                       # Energy for read commands per rank (pJ)
system.mem_ctrl_0.writeEnergy            3725645.952000                       # Energy for write commands per rank (pJ)
system.mem_ctrl_0.refreshEnergy          39939270.840000                       # Energy for refresh commands per rank (pJ)
system.mem_ctrl_0.actBackEnergy          156533902.434000                       # Energy for active background per rank (pJ)
system.mem_ctrl_0.preBackEnergy          2692329.393600                       # Energy for precharge background per rank (pJ)
system.mem_ctrl_0.actPowerDownEnergy     19403494.414080                       # Energy for active power-down per rank (pJ)
system.mem_ctrl_0.prePowerDownEnergy      8319.984960                       # Energy for precharge power-down per rank (pJ)
system.mem_ctrl_0.selfRefreshEnergy                 0                       # Energy for self refresh per rank (pJ)
system.mem_ctrl_0.totalEnergy            662049686.462640                       # Total energy per rank (pJ)
system.mem_ctrl_0.averagePower             118.497010                       # Core power per rank (mW)
system.mem_ctrl_0.totalIdleTime            1654071160                       # Total Idle time Per DRAM Rank
system.mem_ctrl_0.memoryStateTime::IDLE       4560500                       # Time in different power states
system.mem_ctrl_0.memoryStateTime::REF      186947500                       # Time in different power states
system.mem_ctrl_0.memoryStateTime::SREF             0                       # Time in different power states
system.mem_ctrl_0.memoryStateTime::PRE_PDN      4074368                       # Time in different power states
system.mem_ctrl_0.memoryStateTime::ACT     3741477340                       # Time in different power states
system.mem_ctrl_0.memoryStateTime::ACT_PDN   1649996792                       # Time in different power states
system.pwrStateResidencyTicks::UNDEFINED   5587056500                       # Cumulative time (in ticks) in various power states
system.cpu.branchPred.lookups                      77                       # Number of BP lookups
system.cpu.branchPred.condPredicted                77                       # Number of conditional branches predicted
system.cpu.branchPred.condIncorrect                31                       # Number of conditional branches incorrect
system.cpu.branchPred.BTBLookups                   44                       # Number of BTB lookups
system.cpu.branchPred.BTBHits                       0                       # Number of BTB hits
system.cpu.branchPred.BTBCorrect                    0                       # Number of correct BTB predictions (this stat may not work properly.
system.cpu.branchPred.BTBHitPct              0.000000                       # BTB Hit Percentage
system.cpu.branchPred.usedRAS                       0                       # Number of times the RAS was used to get a target.
system.cpu.branchPred.RASInCorrect                  0                       # Number of incorrect RAS predictions.
system.cpu.branchPred.indirectLookups              44                       # Number of indirect predictor lookups.
system.cpu.branchPred.indirectHits                  0                       # Number of indirect target hits.
system.cpu.branchPred.indirectMisses               44                       # Number of indirect misses.
system.cpu.branchPredindirectMispredicted           16                       # Number of mispredicted indirect branches.
system.cpu.dtb.walker.pwrStateResidencyTicks::UNDEFINED   5587056500                       # Cumulative time (in ticks) in various power states
system.cpu.dtb.rdAccesses                       65901                       # TLB accesses on read requests
system.cpu.dtb.wrAccesses                       17040                       # TLB accesses on write requests
system.cpu.dtb.rdMisses                          1694                       # TLB misses on read requests
system.cpu.dtb.wrMisses                            24                       # TLB misses on write requests
system.cpu.apic_clk_domain.clock                 8000                       # Clock period in ticks
system.cpu.interrupts.pwrStateResidencyTicks::UNDEFINED   5587056500                       # Cumulative time (in ticks) in various power states
system.cpu.itb.walker.pwrStateResidencyTicks::UNDEFINED   5587056500                       # Cumulative time (in ticks) in various power states
system.cpu.itb.rdAccesses                           0                       # TLB accesses on read requests
system.cpu.itb.wrAccesses                       67265                       # TLB accesses on write requests
system.cpu.itb.rdMisses                             0                       # TLB misses on read requests
system.cpu.itb.wrMisses                            89                       # TLB misses on write requests
system.cpu.workload.numSyscalls                    32                       # Number of system calls
system.cpu.pwrStateResidencyTicks::ON      5587056500                       # Cumulative time (in ticks) in various power states
system.cpu.numCycles                         11174113                       # number of cpu cycles simulated
system.cpu.numWorkItemsStarted                      0                       # number of work items this cpu started
system.cpu.numWorkItemsCompleted                    0                       # number of work items this cpu completed
system.cpu.committedInsts                      180286                       # Number of instructions committed
system.cpu.committedOps                        330274                       # Number of ops (including micro ops) committed
system.cpu.discardedOps                         75942                       # Number of ops (including micro ops) which were discarded before commit
system.cpu.numFetchSuspends                         0                       # Number of times Execute suspended instruction fetching
system.cpu.cpi                              61.979926                       # CPI: cycles per instruction
system.cpu.ipc                               0.016134                       # IPC: instructions per cycle
system.cpu.op_class_0::No_OpClass                1287      0.39%      0.39% # Class of committed instruction
system.cpu.op_class_0::IntAlu                  253310     76.70%     77.09% # Class of committed instruction
system.cpu.op_class_0::IntMult                     61      0.02%     77.11% # Class of committed instruction
system.cpu.op_class_0::IntDiv                    1131      0.34%     77.45% # Class of committed instruction
system.cpu.op_class_0::FloatAdd                  2227      0.67%     78.12% # Class of committed instruction
system.cpu.op_class_0::FloatCmp                     0      0.00%     78.12% # Class of committed instruction
system.cpu.op_class_0::FloatCvt                     0      0.00%     78.12% # Class of committed instruction
system.cpu.op_class_0::FloatMult                    0      0.00%     78.12% # Class of committed instruction
system.cpu.op_class_0::FloatMultAcc                 0      0.00%     78.12% # Class of committed instruction
system.cpu.op_class_0::FloatDiv                     0      0.00%     78.12% # Class of committed instruction
system.cpu.op_class_0::FloatMisc                    0      0.00%     78.12% # Class of committed instruction
system.cpu.op_class_0::FloatSqrt                    0      0.00%     78.12% # Class of committed instruction
system.cpu.op_class_0::SimdAdd                      0      0.00%     78.12% # Class of committed instruction
system.cpu.op_class_0::SimdAddAcc                   0      0.00%     78.12% # Class of committed instruction
system.cpu.op_class_0::SimdAlu                      0      0.00%     78.12% # Class of committed instruction
system.cpu.op_class_0::SimdCmp                      0      0.00%     78.12% # Class of committed instruction
system.cpu.op_class_0::SimdCvt                      0      0.00%     78.12% # Class of committed instruction
system.cpu.op_class_0::SimdMisc                     0      0.00%     78.12% # Class of committed instruction
system.cpu.op_class_0::SimdMult                     0      0.00%     78.12% # Class of committed instruction
system.cpu.op_class_0::SimdMultAcc                  0      0.00%     78.12% # Class of committed instruction
system.cpu.op_class_0::SimdShift                    0      0.00%     78.12% # Class of committed instruction
system.cpu.op_class_0::SimdShiftAcc                 0      0.00%     78.12% # Class of committed instruction
system.cpu.op_class_0::SimdSqrt                     0      0.00%     78.12% # Class of committed instruction
system.cpu.op_class_0::SimdFloatAdd                 0      0.00%     78.12% # Class of committed instruction
system.cpu.op_class_0::SimdFloatAlu                 0      0.00%     78.12% # Class of committed instruction
system.cpu.op_class_0::SimdFloatCmp                 0      0.00%     78.12% # Class of committed instruction
system.cpu.op_class_0::SimdFloatCvt                 0      0.00%     78.12% # Class of committed instruction
system.cpu.op_class_0::SimdFloatDiv                 0      0.00%     78.12% # Class of committed instruction
system.cpu.op_class_0::SimdFloatMisc                0      0.00%     78.12% # Class of committed instruction
system.cpu.op_class_0::SimdFloatMult                0      0.00%     78.12% # Class of committed instruction
system.cpu.op_class_0::SimdFloatMultAcc             0      0.00%     78.12% # Class of committed instruction
system.cpu.op_class_0::SimdFloatSqrt                0      0.00%     78.12% # Class of committed instruction
system.cpu.op_class_0::MemRead                  54608     16.53%     94.66% # Class of committed instruction
system.cpu.op_class_0::MemWrite                 16484      4.99%     99.65% # Class of committed instruction
system.cpu.op_class_0::FloatMemRead               782      0.24%     99.88% # Class of committed instruction
system.cpu.op_class_0::FloatMemWrite              384      0.12%    100.00% # Class of committed instruction
system.cpu.op_class_0::IprAccess                    0      0.00%    100.00% # Class of committed instruction
system.cpu.op_class_0::InstPrefetch                 0      0.00%    100.00% # Class of committed instruction
system.cpu.op_class_0::total                   330274                       # Class of committed instruction
system.cpu.tickCycles                          872757                       # Number of cycles that the object actually ticked
system.cpu.idleCycles                        10301356                       # Total number of cycles that the object has spent stopped
system.membus.snoop_filter.tot_requests             0                       # Total number of requests made to the snoop filter.
system.membus.snoop_filter.hit_single_requests            0                       # Number of requests hitting in the snoop filter with a single holder of the requested data.
system.membus.snoop_filter.hit_multi_requests            0                       # Number of requests hitting in the snoop filter with multiple (>1) holders of the requested data.
system.membus.snoop_filter.tot_snoops               0                       # Total number of snoops made to the snoop filter.
system.membus.snoop_filter.hit_single_snoops            0                       # Number of snoops hitting in the snoop filter with a single holder of the requested data.
system.membus.snoop_filter.hit_multi_snoops            0                       # Number of snoops hitting in the snoop filter with multiple (>1) holders of the requested data.
system.membus.pwrStateResidencyTicks::UNDEFINED   5587056500                       # Cumulative time (in ticks) in various power states
system.membus.trans_dist::ReadReq              131117                       # Transaction distribution
system.membus.trans_dist::ReadResp             131116                       # Transaction distribution
system.membus.trans_dist::WriteReq              16868                       # Transaction distribution
system.membus.trans_dist::WriteResp             16868                       # Transaction distribution
system.membus.pkt_count_system.cpu.fetch1.icache_port::system.mem_ctrl.port       134529                       # Packet count per connected master and slave (bytes)
system.membus.pkt_count_system.cpu.fetch1.icache_port::total       134529                       # Packet count per connected master and slave (bytes)
system.membus.pkt_count_system.cpu.execute.dcache_port::system.mem_ctrl.port       161440                       # Packet count per connected master and slave (bytes)
system.membus.pkt_count_system.cpu.execute.dcache_port::total       161440                       # Packet count per connected master and slave (bytes)
system.membus.pkt_count::total                 295969                       # Packet count per connected master and slave (bytes)
system.membus.pkt_size_system.cpu.fetch1.icache_port::system.mem_ctrl.port      4304896                       # Cumulative packet size per connected master and slave (bytes)
system.membus.pkt_size_system.cpu.fetch1.icache_port::total      4304896                       # Cumulative packet size per connected master and slave (bytes)
system.membus.pkt_size_system.cpu.execute.dcache_port::system.mem_ctrl.port       451497                       # Cumulative packet size per connected master and slave (bytes)
system.membus.pkt_size_system.cpu.execute.dcache_port::total       451497                       # Cumulative packet size per connected master and slave (bytes)
system.membus.pkt_size::total                 4756393                       # Cumulative packet size per connected master and slave (bytes)
system.membus.snoops                                0                       # Total snoops (count)
system.membus.snoopTraffic                          0                       # Total snoop traffic (bytes)
system.membus.snoop_fanout::samples            147985                       # Request fanout histogram
system.membus.snoop_fanout::mean                    0                       # Request fanout histogram
system.membus.snoop_fanout::stdev                   0                       # Request fanout histogram
system.membus.snoop_fanout::underflows              0      0.00%      0.00% # Request fanout histogram
system.membus.snoop_fanout::0                  147985    100.00%    100.00% # Request fanout histogram
system.membus.snoop_fanout::1                       0      0.00%    100.00% # Request fanout histogram
system.membus.snoop_fanout::overflows               0      0.00%    100.00% # Request fanout histogram
system.membus.snoop_fanout::min_value               0                       # Request fanout histogram
system.membus.snoop_fanout::max_value               0                       # Request fanout histogram
system.membus.snoop_fanout::total              147985                       # Request fanout histogram
system.membus.reqLayer2.occupancy            82426500                       # Layer occupancy (ticks)
system.membus.reqLayer2.utilization               1.5                       # Layer utilization (%)
system.membus.respLayer0.occupancy          168231130                       # Layer occupancy (ticks)
system.membus.respLayer0.utilization              3.0                       # Layer utilization (%)
system.membus.respLayer1.occupancy           72625882                       # Layer occupancy (ticks)
system.membus.respLayer1.utilization              1.3                       # Layer utilization (%)

---------- End Simulation Statistics   ----------
