
---------- Begin Simulation Statistics ----------
sim_seconds                                  0.004394                       # Number of seconds simulated
sim_ticks                                  4394489200                       # Number of ticks simulated
final_tick                                 4394489200                       # Number of ticks from beginning of simulation (restored from checkpoints and never reset)
sim_freq                                 1000000000000                       # Frequency of simulated ticks
host_inst_rate                                 108310                       # Simulator instruction rate (inst/s)
host_op_rate                                   198417                       # Simulator op (including micro ops) rate (op/s)
host_tick_rate                             2640048909                       # Simulator tick rate (ticks/s)
host_mem_usage                                 668416                       # Number of bytes of host memory used
host_seconds                                     1.66                       # Real time elapsed on the host
sim_insts                                      180286                       # Number of instructions simulated
sim_ops                                        330274                       # Number of ops (including micro ops) simulated
system.clk_domain.voltage_domain.voltage            1                       # Voltage in Volts
system.clk_domain.clock                           400                       # Clock period in ticks
system.mem_ctrl.pwrStateResidencyTicks::UNDEFINED   4394489200                       # Cumulative time (in ticks) in various power states
system.mem_ctrl.bytes_read::cpu.inst          4316800                       # Number of bytes read from this memory
system.mem_ctrl.bytes_read::cpu.data           344594                       # Number of bytes read from this memory
system.mem_ctrl.bytes_read::total             4661394                       # Number of bytes read from this memory
system.mem_ctrl.bytes_inst_read::cpu.inst      4316800                       # Number of instructions bytes read from this memory
system.mem_ctrl.bytes_inst_read::total        4316800                       # Number of instructions bytes read from this memory
system.mem_ctrl.bytes_written::cpu.data        106799                       # Number of bytes written to this memory
system.mem_ctrl.bytes_written::total           106799                       # Number of bytes written to this memory
system.mem_ctrl.num_reads::cpu.inst             67450                       # Number of read requests responded to by this memory
system.mem_ctrl.num_reads::cpu.data             63839                       # Number of read requests responded to by this memory
system.mem_ctrl.num_reads::total               131289                       # Number of read requests responded to by this memory
system.mem_ctrl.num_writes::cpu.data            16868                       # Number of write requests responded to by this memory
system.mem_ctrl.num_writes::total               16868                       # Number of write requests responded to by this memory
system.mem_ctrl.bw_read::cpu.inst           982321222                       # Total read bandwidth from this memory (bytes/s)
system.mem_ctrl.bw_read::cpu.data            78415029                       # Total read bandwidth from this memory (bytes/s)
system.mem_ctrl.bw_read::total             1060736251                       # Total read bandwidth from this memory (bytes/s)
system.mem_ctrl.bw_inst_read::cpu.inst      982321222                       # Instruction read bandwidth from this memory (bytes/s)
system.mem_ctrl.bw_inst_read::total         982321222                       # Instruction read bandwidth from this memory (bytes/s)
system.mem_ctrl.bw_write::cpu.data           24302938                       # Write bandwidth from this memory (bytes/s)
system.mem_ctrl.bw_write::total              24302938                       # Write bandwidth from this memory (bytes/s)
system.mem_ctrl.bw_total::cpu.inst          982321222                       # Total bandwidth to/from this memory (bytes/s)
system.mem_ctrl.bw_total::cpu.data          102717968                       # Total bandwidth to/from this memory (bytes/s)
system.mem_ctrl.bw_total::total            1085039190                       # Total bandwidth to/from this memory (bytes/s)
system.mem_ctrl.readReqs                       131290                       # Number of read requests accepted
system.mem_ctrl.writeReqs                       16868                       # Number of write requests accepted
system.mem_ctrl.readBursts                     131290                       # Number of DRAM read bursts, including those serviced by the write queue
system.mem_ctrl.writeBursts                     16868                       # Number of DRAM write bursts, including those merged in the write queue
system.mem_ctrl.bytesReadDRAM                 7842240                       # Total number of bytes read from DRAM
system.mem_ctrl.bytesReadWrQ                   560320                       # Total number of bytes read from write queue
system.mem_ctrl.bytesWritten                    85824                       # Total number of bytes written to DRAM
system.mem_ctrl.bytesReadSys                  4661458                       # Total read bytes from the system interface side
system.mem_ctrl.bytesWrittenSys                106799                       # Total written bytes from the system interface side
system.mem_ctrl.servicedByWrQ                    8755                       # Number of DRAM read bursts serviced by the write queue
system.mem_ctrl.mergedWrBursts                  15503                       # Number of DRAM write bursts merged with an existing one
system.mem_ctrl.neitherReadNorWriteReqs             0                       # Number of requests that are neither read nor write
system.mem_ctrl.perBankRdBursts::0              17959                       # Per bank write bursts
system.mem_ctrl.perBankRdBursts::1               5618                       # Per bank write bursts
system.mem_ctrl.perBankRdBursts::2               1747                       # Per bank write bursts
system.mem_ctrl.perBankRdBursts::3               1040                       # Per bank write bursts
system.mem_ctrl.perBankRdBursts::4               3149                       # Per bank write bursts
system.mem_ctrl.perBankRdBursts::5              30494                       # Per bank write bursts
system.mem_ctrl.perBankRdBursts::6              30721                       # Per bank write bursts
system.mem_ctrl.perBankRdBursts::7              15732                       # Per bank write bursts
system.mem_ctrl.perBankRdBursts::8               2089                       # Per bank write bursts
system.mem_ctrl.perBankRdBursts::9               1977                       # Per bank write bursts
system.mem_ctrl.perBankRdBursts::10              3142                       # Per bank write bursts
system.mem_ctrl.perBankRdBursts::11              2573                       # Per bank write bursts
system.mem_ctrl.perBankRdBursts::12               402                       # Per bank write bursts
system.mem_ctrl.perBankRdBursts::13               995                       # Per bank write bursts
system.mem_ctrl.perBankRdBursts::14              1354                       # Per bank write bursts
system.mem_ctrl.perBankRdBursts::15              3543                       # Per bank write bursts
system.mem_ctrl.perBankWrBursts::0                  3                       # Per bank write bursts
system.mem_ctrl.perBankWrBursts::1                  3                       # Per bank write bursts
system.mem_ctrl.perBankWrBursts::2                  0                       # Per bank write bursts
system.mem_ctrl.perBankWrBursts::3                  0                       # Per bank write bursts
system.mem_ctrl.perBankWrBursts::4                 24                       # Per bank write bursts
system.mem_ctrl.perBankWrBursts::5                126                       # Per bank write bursts
system.mem_ctrl.perBankWrBursts::6                230                       # Per bank write bursts
system.mem_ctrl.perBankWrBursts::7                 59                       # Per bank write bursts
system.mem_ctrl.perBankWrBursts::8                 33                       # Per bank write bursts
system.mem_ctrl.perBankWrBursts::9                112                       # Per bank write bursts
system.mem_ctrl.perBankWrBursts::10               118                       # Per bank write bursts
system.mem_ctrl.perBankWrBursts::11                83                       # Per bank write bursts
system.mem_ctrl.perBankWrBursts::12                 0                       # Per bank write bursts
system.mem_ctrl.perBankWrBursts::13                 5                       # Per bank write bursts
system.mem_ctrl.perBankWrBursts::14                44                       # Per bank write bursts
system.mem_ctrl.perBankWrBursts::15               501                       # Per bank write bursts
system.mem_ctrl.numRdRetry                          0                       # Number of times read queue was full causing retry
system.mem_ctrl.numWrRetry                          0                       # Number of times write queue was full causing retry
system.mem_ctrl.totGap                     4394486400                       # Total gap between requests
system.mem_ctrl.readPktSize::0                   7589                       # Read request sizes (log2)
system.mem_ctrl.readPktSize::1                   2618                       # Read request sizes (log2)
system.mem_ctrl.readPktSize::2                  24318                       # Read request sizes (log2)
system.mem_ctrl.readPktSize::3                  29314                       # Read request sizes (log2)
system.mem_ctrl.readPktSize::4                      0                       # Read request sizes (log2)
system.mem_ctrl.readPktSize::5                      0                       # Read request sizes (log2)
system.mem_ctrl.readPktSize::6                  67451                       # Read request sizes (log2)
system.mem_ctrl.writePktSize::0                   103                       # Write request sizes (log2)
system.mem_ctrl.writePktSize::1                    20                       # Write request sizes (log2)
system.mem_ctrl.writePktSize::2                  6826                       # Write request sizes (log2)
system.mem_ctrl.writePktSize::3                  9919                       # Write request sizes (log2)
system.mem_ctrl.writePktSize::4                     0                       # Write request sizes (log2)
system.mem_ctrl.writePktSize::5                     0                       # Write request sizes (log2)
system.mem_ctrl.writePktSize::6                     0                       # Write request sizes (log2)
system.mem_ctrl.rdQLenPdf::0                    73593                       # What read queue length does an incoming req see
system.mem_ctrl.rdQLenPdf::1                    45070                       # What read queue length does an incoming req see
system.mem_ctrl.rdQLenPdf::2                     3872                       # What read queue length does an incoming req see
system.mem_ctrl.rdQLenPdf::3                        0                       # What read queue length does an incoming req see
system.mem_ctrl.rdQLenPdf::4                        0                       # What read queue length does an incoming req see
system.mem_ctrl.rdQLenPdf::5                        0                       # What read queue length does an incoming req see
system.mem_ctrl.rdQLenPdf::6                        0                       # What read queue length does an incoming req see
system.mem_ctrl.rdQLenPdf::7                        0                       # What read queue length does an incoming req see
system.mem_ctrl.rdQLenPdf::8                        0                       # What read queue length does an incoming req see
system.mem_ctrl.rdQLenPdf::9                        0                       # What read queue length does an incoming req see
system.mem_ctrl.rdQLenPdf::10                       0                       # What read queue length does an incoming req see
system.mem_ctrl.rdQLenPdf::11                       0                       # What read queue length does an incoming req see
system.mem_ctrl.rdQLenPdf::12                       0                       # What read queue length does an incoming req see
system.mem_ctrl.rdQLenPdf::13                       0                       # What read queue length does an incoming req see
system.mem_ctrl.rdQLenPdf::14                       0                       # What read queue length does an incoming req see
system.mem_ctrl.rdQLenPdf::15                       0                       # What read queue length does an incoming req see
system.mem_ctrl.rdQLenPdf::16                       0                       # What read queue length does an incoming req see
system.mem_ctrl.rdQLenPdf::17                       0                       # What read queue length does an incoming req see
system.mem_ctrl.rdQLenPdf::18                       0                       # What read queue length does an incoming req see
system.mem_ctrl.rdQLenPdf::19                       0                       # What read queue length does an incoming req see
system.mem_ctrl.rdQLenPdf::20                       0                       # What read queue length does an incoming req see
system.mem_ctrl.rdQLenPdf::21                       0                       # What read queue length does an incoming req see
system.mem_ctrl.rdQLenPdf::22                       0                       # What read queue length does an incoming req see
system.mem_ctrl.rdQLenPdf::23                       0                       # What read queue length does an incoming req see
system.mem_ctrl.rdQLenPdf::24                       0                       # What read queue length does an incoming req see
system.mem_ctrl.rdQLenPdf::25                       0                       # What read queue length does an incoming req see
system.mem_ctrl.rdQLenPdf::26                       0                       # What read queue length does an incoming req see
system.mem_ctrl.rdQLenPdf::27                       0                       # What read queue length does an incoming req see
system.mem_ctrl.rdQLenPdf::28                       0                       # What read queue length does an incoming req see
system.mem_ctrl.rdQLenPdf::29                       0                       # What read queue length does an incoming req see
system.mem_ctrl.rdQLenPdf::30                       0                       # What read queue length does an incoming req see
system.mem_ctrl.rdQLenPdf::31                       0                       # What read queue length does an incoming req see
system.mem_ctrl.wrQLenPdf::0                        1                       # What write queue length does an incoming req see
system.mem_ctrl.wrQLenPdf::1                        1                       # What write queue length does an incoming req see
system.mem_ctrl.wrQLenPdf::2                        1                       # What write queue length does an incoming req see
system.mem_ctrl.wrQLenPdf::3                        1                       # What write queue length does an incoming req see
system.mem_ctrl.wrQLenPdf::4                        1                       # What write queue length does an incoming req see
system.mem_ctrl.wrQLenPdf::5                        1                       # What write queue length does an incoming req see
system.mem_ctrl.wrQLenPdf::6                        1                       # What write queue length does an incoming req see
system.mem_ctrl.wrQLenPdf::7                        1                       # What write queue length does an incoming req see
system.mem_ctrl.wrQLenPdf::8                        1                       # What write queue length does an incoming req see
system.mem_ctrl.wrQLenPdf::9                        1                       # What write queue length does an incoming req see
system.mem_ctrl.wrQLenPdf::10                       1                       # What write queue length does an incoming req see
system.mem_ctrl.wrQLenPdf::11                       1                       # What write queue length does an incoming req see
system.mem_ctrl.wrQLenPdf::12                       1                       # What write queue length does an incoming req see
system.mem_ctrl.wrQLenPdf::13                       1                       # What write queue length does an incoming req see
system.mem_ctrl.wrQLenPdf::14                       1                       # What write queue length does an incoming req see
system.mem_ctrl.wrQLenPdf::15                       4                       # What write queue length does an incoming req see
system.mem_ctrl.wrQLenPdf::16                       8                       # What write queue length does an incoming req see
system.mem_ctrl.wrQLenPdf::17                      81                       # What write queue length does an incoming req see
system.mem_ctrl.wrQLenPdf::18                      83                       # What write queue length does an incoming req see
system.mem_ctrl.wrQLenPdf::19                      83                       # What write queue length does an incoming req see
system.mem_ctrl.wrQLenPdf::20                      84                       # What write queue length does an incoming req see
system.mem_ctrl.wrQLenPdf::21                      85                       # What write queue length does an incoming req see
system.mem_ctrl.wrQLenPdf::22                      85                       # What write queue length does an incoming req see
system.mem_ctrl.wrQLenPdf::23                      85                       # What write queue length does an incoming req see
system.mem_ctrl.wrQLenPdf::24                      83                       # What write queue length does an incoming req see
system.mem_ctrl.wrQLenPdf::25                      86                       # What write queue length does an incoming req see
system.mem_ctrl.wrQLenPdf::26                      84                       # What write queue length does an incoming req see
system.mem_ctrl.wrQLenPdf::27                      84                       # What write queue length does an incoming req see
system.mem_ctrl.wrQLenPdf::28                      83                       # What write queue length does an incoming req see
system.mem_ctrl.wrQLenPdf::29                      83                       # What write queue length does an incoming req see
system.mem_ctrl.wrQLenPdf::30                      83                       # What write queue length does an incoming req see
system.mem_ctrl.wrQLenPdf::31                      83                       # What write queue length does an incoming req see
system.mem_ctrl.wrQLenPdf::32                      83                       # What write queue length does an incoming req see
system.mem_ctrl.wrQLenPdf::33                       0                       # What write queue length does an incoming req see
system.mem_ctrl.wrQLenPdf::34                       0                       # What write queue length does an incoming req see
system.mem_ctrl.wrQLenPdf::35                       0                       # What write queue length does an incoming req see
system.mem_ctrl.wrQLenPdf::36                       0                       # What write queue length does an incoming req see
system.mem_ctrl.wrQLenPdf::37                       0                       # What write queue length does an incoming req see
system.mem_ctrl.wrQLenPdf::38                       0                       # What write queue length does an incoming req see
system.mem_ctrl.wrQLenPdf::39                       0                       # What write queue length does an incoming req see
system.mem_ctrl.wrQLenPdf::40                       0                       # What write queue length does an incoming req see
system.mem_ctrl.wrQLenPdf::41                       0                       # What write queue length does an incoming req see
system.mem_ctrl.wrQLenPdf::42                       0                       # What write queue length does an incoming req see
system.mem_ctrl.wrQLenPdf::43                       0                       # What write queue length does an incoming req see
system.mem_ctrl.wrQLenPdf::44                       0                       # What write queue length does an incoming req see
system.mem_ctrl.wrQLenPdf::45                       0                       # What write queue length does an incoming req see
system.mem_ctrl.wrQLenPdf::46                       0                       # What write queue length does an incoming req see
system.mem_ctrl.wrQLenPdf::47                       0                       # What write queue length does an incoming req see
system.mem_ctrl.wrQLenPdf::48                       0                       # What write queue length does an incoming req see
system.mem_ctrl.wrQLenPdf::49                       0                       # What write queue length does an incoming req see
system.mem_ctrl.wrQLenPdf::50                       0                       # What write queue length does an incoming req see
system.mem_ctrl.wrQLenPdf::51                       0                       # What write queue length does an incoming req see
system.mem_ctrl.wrQLenPdf::52                       0                       # What write queue length does an incoming req see
system.mem_ctrl.wrQLenPdf::53                       0                       # What write queue length does an incoming req see
system.mem_ctrl.wrQLenPdf::54                       0                       # What write queue length does an incoming req see
system.mem_ctrl.wrQLenPdf::55                       0                       # What write queue length does an incoming req see
system.mem_ctrl.wrQLenPdf::56                       0                       # What write queue length does an incoming req see
system.mem_ctrl.wrQLenPdf::57                       0                       # What write queue length does an incoming req see
system.mem_ctrl.wrQLenPdf::58                       0                       # What write queue length does an incoming req see
system.mem_ctrl.wrQLenPdf::59                       0                       # What write queue length does an incoming req see
system.mem_ctrl.wrQLenPdf::60                       0                       # What write queue length does an incoming req see
system.mem_ctrl.wrQLenPdf::61                       0                       # What write queue length does an incoming req see
system.mem_ctrl.wrQLenPdf::62                       0                       # What write queue length does an incoming req see
system.mem_ctrl.wrQLenPdf::63                       0                       # What write queue length does an incoming req see
system.mem_ctrl.bytesPerActivate::samples        20230                       # Bytes accessed per row activation
system.mem_ctrl.bytesPerActivate::mean     391.738211                       # Bytes accessed per row activation
system.mem_ctrl.bytesPerActivate::gmean    224.695360                       # Bytes accessed per row activation
system.mem_ctrl.bytesPerActivate::stdev    381.104845                       # Bytes accessed per row activation
system.mem_ctrl.bytesPerActivate::0-127          6884     34.03%     34.03% # Bytes accessed per row activation
system.mem_ctrl.bytesPerActivate::128-255         2994     14.80%     48.83% # Bytes accessed per row activation
system.mem_ctrl.bytesPerActivate::256-383         3230     15.97%     64.79% # Bytes accessed per row activation
system.mem_ctrl.bytesPerActivate::384-511         1151      5.69%     70.48% # Bytes accessed per row activation
system.mem_ctrl.bytesPerActivate::512-639          404      2.00%     72.48% # Bytes accessed per row activation
system.mem_ctrl.bytesPerActivate::640-767          340      1.68%     74.16% # Bytes accessed per row activation
system.mem_ctrl.bytesPerActivate::768-895          452      2.23%     76.40% # Bytes accessed per row activation
system.mem_ctrl.bytesPerActivate::896-1023          416      2.06%     78.45% # Bytes accessed per row activation
system.mem_ctrl.bytesPerActivate::1024-1151         4359     21.55%    100.00% # Bytes accessed per row activation
system.mem_ctrl.bytesPerActivate::total         20230                       # Bytes accessed per row activation
system.mem_ctrl.rdPerTurnAround::samples           83                       # Reads before turning the bus around for writes
system.mem_ctrl.rdPerTurnAround::mean     1472.867470                       # Reads before turning the bus around for writes
system.mem_ctrl.rdPerTurnAround::gmean     464.552878                       # Reads before turning the bus around for writes
system.mem_ctrl.rdPerTurnAround::stdev    5410.840588                       # Reads before turning the bus around for writes
system.mem_ctrl.rdPerTurnAround::0-2047            80     96.39%     96.39% # Reads before turning the bus around for writes
system.mem_ctrl.rdPerTurnAround::12288-14335            1      1.20%     97.59% # Reads before turning the bus around for writes
system.mem_ctrl.rdPerTurnAround::20480-22527            1      1.20%     98.80% # Reads before turning the bus around for writes
system.mem_ctrl.rdPerTurnAround::43008-45055            1      1.20%    100.00% # Reads before turning the bus around for writes
system.mem_ctrl.rdPerTurnAround::total             83                       # Reads before turning the bus around for writes
system.mem_ctrl.wrPerTurnAround::samples           83                       # Writes before turning the bus around for reads
system.mem_ctrl.wrPerTurnAround::mean       16.156627                       # Writes before turning the bus around for reads
system.mem_ctrl.wrPerTurnAround::gmean      16.149278                       # Writes before turning the bus around for reads
system.mem_ctrl.wrPerTurnAround::stdev       0.505625                       # Writes before turning the bus around for reads
system.mem_ctrl.wrPerTurnAround::16                75     90.36%     90.36% # Writes before turning the bus around for reads
system.mem_ctrl.wrPerTurnAround::17                 3      3.61%     93.98% # Writes before turning the bus around for reads
system.mem_ctrl.wrPerTurnAround::18                 5      6.02%    100.00% # Writes before turning the bus around for reads
system.mem_ctrl.wrPerTurnAround::total             83                       # Writes before turning the bus around for reads
system.mem_ctrl.totQLat                    1622349156                       # Total ticks spent queuing
system.mem_ctrl.totMemAccLat               3686083626                       # Total ticks spent from burst creation until serviced by the DRAM
system.mem_ctrl.totBusLat                   459751320                       # Total ticks spent in databus transfers
system.mem_ctrl.avgQLat                      13239.88                       # Average queueing delay per DRAM burst
system.mem_ctrl.avgBusLat                     3752.00                       # Average bus latency per DRAM burst
system.mem_ctrl.avgMemAccLat                 30081.88                       # Average memory access latency per DRAM burst
system.mem_ctrl.avgRdBW                       1784.56                       # Average DRAM read bandwidth in MiByte/s
system.mem_ctrl.avgWrBW                         19.53                       # Average achieved write bandwidth in MiByte/s
system.mem_ctrl.avgRdBWSys                    1060.75                       # Average system read bandwidth in MiByte/s
system.mem_ctrl.avgWrBWSys                      24.30                       # Average system write bandwidth in MiByte/s
system.mem_ctrl.peakBW                       17057.00                       # Theoretical peak bandwidth in MiByte/s
system.mem_ctrl.busUtil                         10.58                       # Data bus utilization in percentage
system.mem_ctrl.busUtilRead                     10.46                       # Data bus utilization in percentage for reads
system.mem_ctrl.busUtilWrite                     0.11                       # Data bus utilization in percentage for writes
system.mem_ctrl.avgRdQLen                        1.63                       # Average read queue length when enqueuing
system.mem_ctrl.avgWrQLen                       26.80                       # Average write queue length when enqueuing
system.mem_ctrl.readRowHits                    102407                       # Number of row buffer hits during reads
system.mem_ctrl.writeRowHits                     1232                       # Number of row buffer hits during writes
system.mem_ctrl.readRowHitRate                  83.57                       # Row buffer hit rate for reads
system.mem_ctrl.writeRowHitRate                 90.26                       # Row buffer hit rate for writes
system.mem_ctrl.avgGap                       29660.81                       # Average gap between requests
system.mem_ctrl.pageHitRate                     83.65                       # Row buffer hit rate, read and write combined
system.mem_ctrl_0.actEnergy              194308365.888000                       # Energy for activate commands per rank (pJ)
system.mem_ctrl_0.preEnergy              95898215.952000                       # Energy for precharge commands per rank (pJ)
system.mem_ctrl_0.readEnergy             704608490.880000                       # Energy for read commands per rank (pJ)
system.mem_ctrl_0.writeEnergy            2264031.840000                       # Energy for write commands per rank (pJ)
system.mem_ctrl_0.refreshEnergy          363559254.912000                       # Energy for refresh commands per rank (pJ)
system.mem_ctrl_0.actBackEnergy          1297342066.944000                       # Energy for active background per rank (pJ)
system.mem_ctrl_0.preBackEnergy          12477084.648000                       # Energy for precharge background per rank (pJ)
system.mem_ctrl_0.actPowerDownEnergy     990130303.008000                       # Energy for active power-down per rank (pJ)
system.mem_ctrl_0.prePowerDownEnergy     11181552.816000                       # Energy for precharge power-down per rank (pJ)
system.mem_ctrl_0.selfRefreshEnergy      4136309.856000                       # Energy for self refresh per rank (pJ)
system.mem_ctrl_0.totalEnergy            3675905676.743999                       # Total energy per rank (pJ)
system.mem_ctrl_0.averagePower             836.480674                       # Core power per rank (mW)
system.mem_ctrl_0.totalIdleTime            1908885818                       # Total Idle time Per DRAM Rank
system.mem_ctrl_0.memoryStateTime::IDLE       2922400                       # Time in different power states
system.mem_ctrl_0.memoryStateTime::REF      146652000                       # Time in different power states
system.mem_ctrl_0.memoryStateTime::SREF      12383640                       # Time in different power states
system.mem_ctrl_0.memoryStateTime::PRE_PDN     21670746                       # Time in different power states
system.mem_ctrl_0.memoryStateTime::ACT     2335796624                       # Time in different power states
system.mem_ctrl_0.memoryStateTime::ACT_PDN   1875063790                       # Time in different power states
system.mem_ctrl_1.actEnergy              18900895.104000                       # Energy for activate commands per rank (pJ)
system.mem_ctrl_1.preEnergy              9303286.608000                       # Energy for precharge commands per rank (pJ)
system.mem_ctrl_1.readEnergy             106386219.072000                       # Energy for read commands per rank (pJ)
system.mem_ctrl_1.writeEnergy            4558589.952000                       # Energy for write commands per rank (pJ)
system.mem_ctrl_1.refreshEnergy          302966045.760000                       # Energy for refresh commands per rank (pJ)
system.mem_ctrl_1.actBackEnergy          375609703.392000                       # Energy for active background per rank (pJ)
system.mem_ctrl_1.preBackEnergy          17067855.504000                       # Energy for precharge background per rank (pJ)
system.mem_ctrl_1.actPowerDownEnergy     1178822915.424000                       # Energy for active power-down per rank (pJ)
system.mem_ctrl_1.prePowerDownEnergy     227932919.424000                       # Energy for precharge power-down per rank (pJ)
system.mem_ctrl_1.selfRefreshEnergy      252170824.416000                       # Energy for self refresh per rank (pJ)
system.mem_ctrl_1.totalEnergy            2493991807.440000                       # Total energy per rank (pJ)
system.mem_ctrl_1.averagePower             567.527062                       # Core power per rank (mW)
system.mem_ctrl_1.totalIdleTime            3644248884                       # Total Idle time Per DRAM Rank
system.mem_ctrl_1.memoryStateTime::IDLE      21316910                       # Time in different power states
system.mem_ctrl_1.memoryStateTime::REF      122440000                       # Time in different power states
system.mem_ctrl_1.memoryStateTime::SREF     969794060                       # Time in different power states
system.mem_ctrl_1.memoryStateTime::PRE_PDN    441741370                       # Time in different power states
system.mem_ctrl_1.memoryStateTime::ACT      606483406                       # Time in different power states
system.mem_ctrl_1.memoryStateTime::ACT_PDN   2232713454                       # Time in different power states
system.pwrStateResidencyTicks::UNDEFINED   4394489200                       # Cumulative time (in ticks) in various power states
system.cpu.branchPred.lookups                      81                       # Number of BP lookups
system.cpu.branchPred.condPredicted                81                       # Number of conditional branches predicted
system.cpu.branchPred.condIncorrect                31                       # Number of conditional branches incorrect
system.cpu.branchPred.BTBLookups                   47                       # Number of BTB lookups
system.cpu.branchPred.BTBHits                       0                       # Number of BTB hits
system.cpu.branchPred.BTBCorrect                    0                       # Number of correct BTB predictions (this stat may not work properly.
system.cpu.branchPred.BTBHitPct              0.000000                       # BTB Hit Percentage
system.cpu.branchPred.usedRAS                       0                       # Number of times the RAS was used to get a target.
system.cpu.branchPred.RASInCorrect                  0                       # Number of incorrect RAS predictions.
system.cpu.branchPred.indirectLookups              47                       # Number of indirect predictor lookups.
system.cpu.branchPred.indirectHits                  0                       # Number of indirect target hits.
system.cpu.branchPred.indirectMisses               47                       # Number of indirect misses.
system.cpu.branchPredindirectMispredicted           16                       # Number of mispredicted indirect branches.
system.cpu.dtb.walker.pwrStateResidencyTicks::UNDEFINED   4394489200                       # Cumulative time (in ticks) in various power states
system.cpu.dtb.rdAccesses                       65902                       # TLB accesses on read requests
system.cpu.dtb.wrAccesses                       17040                       # TLB accesses on write requests
system.cpu.dtb.rdMisses                          1694                       # TLB misses on read requests
system.cpu.dtb.wrMisses                            24                       # TLB misses on write requests
system.cpu.apic_clk_domain.clock                 6400                       # Clock period in ticks
system.cpu.interrupts.pwrStateResidencyTicks::UNDEFINED   4394489200                       # Cumulative time (in ticks) in various power states
system.cpu.itb.walker.pwrStateResidencyTicks::UNDEFINED   4394489200                       # Cumulative time (in ticks) in various power states
system.cpu.itb.rdAccesses                           0                       # TLB accesses on read requests
system.cpu.itb.wrAccesses                       67451                       # TLB accesses on write requests
system.cpu.itb.rdMisses                             0                       # TLB misses on read requests
system.cpu.itb.wrMisses                            89                       # TLB misses on write requests
system.cpu.workload.numSyscalls                    32                       # Number of system calls
system.cpu.pwrStateResidencyTicks::ON      4394489200                       # Cumulative time (in ticks) in various power states
system.cpu.numCycles                         10986223                       # number of cpu cycles simulated
system.cpu.numWorkItemsStarted                      0                       # number of work items this cpu started
system.cpu.numWorkItemsCompleted                    0                       # number of work items this cpu completed
system.cpu.committedInsts                      180286                       # Number of instructions committed
system.cpu.committedOps                        330274                       # Number of ops (including micro ops) committed
system.cpu.discardedOps                         76019                       # Number of ops (including micro ops) which were discarded before commit
system.cpu.numFetchSuspends                         0                       # Number of times Execute suspended instruction fetching
system.cpu.cpi                              60.937749                       # CPI: cycles per instruction
system.cpu.ipc                               0.016410                       # IPC: instructions per cycle
system.cpu.op_class_0::No_OpClass                1287      0.39%      0.39% # Class of committed instruction
system.cpu.op_class_0::IntAlu                  253310     76.70%     77.09% # Class of committed instruction
system.cpu.op_class_0::IntMult                     61      0.02%     77.11% # Class of committed instruction
system.cpu.op_class_0::IntDiv                    1131      0.34%     77.45% # Class of committed instruction
system.cpu.op_class_0::FloatAdd                  2227      0.67%     78.12% # Class of committed instruction
system.cpu.op_class_0::FloatCmp                     0      0.00%     78.12% # Class of committed instruction
system.cpu.op_class_0::FloatCvt                     0      0.00%     78.12% # Class of committed instruction
system.cpu.op_class_0::FloatMult                    0      0.00%     78.12% # Class of committed instruction
system.cpu.op_class_0::FloatMultAcc                 0      0.00%     78.12% # Class of committed instruction
system.cpu.op_class_0::FloatDiv                     0      0.00%     78.12% # Class of committed instruction
system.cpu.op_class_0::FloatMisc                    0      0.00%     78.12% # Class of committed instruction
system.cpu.op_class_0::FloatSqrt                    0      0.00%     78.12% # Class of committed instruction
system.cpu.op_class_0::SimdAdd                      0      0.00%     78.12% # Class of committed instruction
system.cpu.op_class_0::SimdAddAcc                   0      0.00%     78.12% # Class of committed instruction
system.cpu.op_class_0::SimdAlu                      0      0.00%     78.12% # Class of committed instruction
system.cpu.op_class_0::SimdCmp                      0      0.00%     78.12% # Class of committed instruction
system.cpu.op_class_0::SimdCvt                      0      0.00%     78.12% # Class of committed instruction
system.cpu.op_class_0::SimdMisc                     0      0.00%     78.12% # Class of committed instruction
system.cpu.op_class_0::SimdMult                     0      0.00%     78.12% # Class of committed instruction
system.cpu.op_class_0::SimdMultAcc                  0      0.00%     78.12% # Class of committed instruction
system.cpu.op_class_0::SimdShift                    0      0.00%     78.12% # Class of committed instruction
system.cpu.op_class_0::SimdShiftAcc                 0      0.00%     78.12% # Class of committed instruction
system.cpu.op_class_0::SimdSqrt                     0      0.00%     78.12% # Class of committed instruction
system.cpu.op_class_0::SimdFloatAdd                 0      0.00%     78.12% # Class of committed instruction
system.cpu.op_class_0::SimdFloatAlu                 0      0.00%     78.12% # Class of committed instruction
system.cpu.op_class_0::SimdFloatCmp                 0      0.00%     78.12% # Class of committed instruction
system.cpu.op_class_0::SimdFloatCvt                 0      0.00%     78.12% # Class of committed instruction
system.cpu.op_class_0::SimdFloatDiv                 0      0.00%     78.12% # Class of committed instruction
system.cpu.op_class_0::SimdFloatMisc                0      0.00%     78.12% # Class of committed instruction
system.cpu.op_class_0::SimdFloatMult                0      0.00%     78.12% # Class of committed instruction
system.cpu.op_class_0::SimdFloatMultAcc             0      0.00%     78.12% # Class of committed instruction
system.cpu.op_class_0::SimdFloatSqrt                0      0.00%     78.12% # Class of committed instruction
system.cpu.op_class_0::MemRead                  54608     16.53%     94.66% # Class of committed instruction
system.cpu.op_class_0::MemWrite                 16484      4.99%     99.65% # Class of committed instruction
system.cpu.op_class_0::FloatMemRead               782      0.24%     99.88% # Class of committed instruction
system.cpu.op_class_0::FloatMemWrite              384      0.12%    100.00% # Class of committed instruction
system.cpu.op_class_0::IprAccess                    0      0.00%    100.00% # Class of committed instruction
system.cpu.op_class_0::InstPrefetch                 0      0.00%    100.00% # Class of committed instruction
system.cpu.op_class_0::total                   330274                       # Class of committed instruction
system.cpu.tickCycles                          864282                       # Number of cycles that the object actually ticked
system.cpu.idleCycles                        10121941                       # Total number of cycles that the object has spent stopped
system.membus.snoop_filter.tot_requests             0                       # Total number of requests made to the snoop filter.
system.membus.snoop_filter.hit_single_requests            0                       # Number of requests hitting in the snoop filter with a single holder of the requested data.
system.membus.snoop_filter.hit_multi_requests            0                       # Number of requests hitting in the snoop filter with multiple (>1) holders of the requested data.
system.membus.snoop_filter.tot_snoops               0                       # Total number of snoops made to the snoop filter.
system.membus.snoop_filter.hit_single_snoops            0                       # Number of snoops hitting in the snoop filter with a single holder of the requested data.
system.membus.snoop_filter.hit_multi_snoops            0                       # Number of snoops hitting in the snoop filter with multiple (>1) holders of the requested data.
system.membus.pwrStateResidencyTicks::UNDEFINED   4394489200                       # Cumulative time (in ticks) in various power states
system.membus.trans_dist::ReadReq              131290                       # Transaction distribution
system.membus.trans_dist::ReadResp             131289                       # Transaction distribution
system.membus.trans_dist::WriteReq              16868                       # Transaction distribution
system.membus.trans_dist::WriteResp             16868                       # Transaction distribution
system.membus.pkt_count_system.cpu.fetch1.icache_port::system.mem_ctrl.port       134901                       # Packet count per connected master and slave (bytes)
system.membus.pkt_count_system.cpu.fetch1.icache_port::total       134901                       # Packet count per connected master and slave (bytes)
system.membus.pkt_count_system.cpu.execute.dcache_port::system.mem_ctrl.port       161414                       # Packet count per connected master and slave (bytes)
system.membus.pkt_count_system.cpu.execute.dcache_port::total       161414                       # Packet count per connected master and slave (bytes)
system.membus.pkt_count::total                 296315                       # Packet count per connected master and slave (bytes)
system.membus.pkt_size_system.cpu.fetch1.icache_port::system.mem_ctrl.port      4316800                       # Cumulative packet size per connected master and slave (bytes)
system.membus.pkt_size_system.cpu.fetch1.icache_port::total      4316800                       # Cumulative packet size per connected master and slave (bytes)
system.membus.pkt_size_system.cpu.execute.dcache_port::system.mem_ctrl.port       451393                       # Cumulative packet size per connected master and slave (bytes)
system.membus.pkt_size_system.cpu.execute.dcache_port::total       451393                       # Cumulative packet size per connected master and slave (bytes)
system.membus.pkt_size::total                 4768193                       # Cumulative packet size per connected master and slave (bytes)
system.membus.snoops                                0                       # Total snoops (count)
system.membus.snoopTraffic                          0                       # Total snoop traffic (bytes)
system.membus.snoop_fanout::samples            148158                       # Request fanout histogram
system.membus.snoop_fanout::mean                    0                       # Request fanout histogram
system.membus.snoop_fanout::stdev                   0                       # Request fanout histogram
system.membus.snoop_fanout::underflows              0      0.00%      0.00% # Request fanout histogram
system.membus.snoop_fanout::0                  148158    100.00%    100.00% # Request fanout histogram
system.membus.snoop_fanout::1                       0      0.00%    100.00% # Request fanout histogram
system.membus.snoop_fanout::overflows               0      0.00%    100.00% # Request fanout histogram
system.membus.snoop_fanout::min_value               0                       # Request fanout histogram
system.membus.snoop_fanout::max_value               0                       # Request fanout histogram
system.membus.snoop_fanout::total              148158                       # Request fanout histogram
system.membus.reqLayer2.occupancy            66010400                       # Layer occupancy (ticks)
system.membus.reqLayer2.utilization               1.5                       # Layer utilization (%)
system.membus.respLayer0.occupancy          155919846                       # Layer occupancy (ticks)
system.membus.respLayer0.utilization              3.5                       # Layer utilization (%)
system.membus.respLayer1.occupancy           72020833                       # Layer occupancy (ticks)
system.membus.respLayer1.utilization              1.6                       # Layer utilization (%)

---------- End Simulation Statistics   ----------
