
---------- Begin Simulation Statistics ----------
sim_seconds                                  4.706950                       # Number of seconds simulated
sim_ticks                                4706950450000                       # Number of ticks simulated
final_tick                               4706950450000                       # Number of ticks from beginning of simulation (restored from checkpoints and never reset)
sim_freq                                 1000000000000                       # Frequency of simulated ticks
host_inst_rate                                 266367                       # Simulator instruction rate (inst/s)
host_op_rate                                   458164                       # Simulator op (including micro ops) rate (op/s)
host_tick_rate                            26284488416                       # Simulator tick rate (ticks/s)
host_mem_usage                                 666112                       # Number of bytes of host memory used
host_seconds                                   179.08                       # Real time elapsed on the host
sim_insts                                    47700244                       # Number of instructions simulated
sim_ops                                      82046706                       # Number of ops (including micro ops) simulated
system.clk_domain.voltage_domain.voltage            1                       # Voltage in Volts
system.clk_domain.clock                          1000                       # Clock period in ticks
system.mem_ctrl.pwrStateResidencyTicks::UNDEFINED 4706950450000                       # Cumulative time (in ticks) in various power states
system.mem_ctrl.bytes_read::cpu.inst        506545384                       # Number of bytes read from this memory
system.mem_ctrl.bytes_read::cpu.data        111962384                       # Number of bytes read from this memory
system.mem_ctrl.bytes_read::total           618507768                       # Number of bytes read from this memory
system.mem_ctrl.bytes_inst_read::cpu.inst    506545384                       # Number of instructions bytes read from this memory
system.mem_ctrl.bytes_inst_read::total      506545384                       # Number of instructions bytes read from this memory
system.mem_ctrl.bytes_written::cpu.data      29377849                       # Number of bytes written to this memory
system.mem_ctrl.bytes_written::total         29377849                       # Number of bytes written to this memory
system.mem_ctrl.num_reads::cpu.inst          63318173                       # Number of read requests responded to by this memory
system.mem_ctrl.num_reads::cpu.data          23854000                       # Number of read requests responded to by this memory
system.mem_ctrl.num_reads::total             87172173                       # Number of read requests responded to by this memory
system.mem_ctrl.num_writes::cpu.data          7334621                       # Number of write requests responded to by this memory
system.mem_ctrl.num_writes::total             7334621                       # Number of write requests responded to by this memory
system.mem_ctrl.bw_read::cpu.inst           107616468                       # Total read bandwidth from this memory (bytes/s)
system.mem_ctrl.bw_read::cpu.data            23786608                       # Total read bandwidth from this memory (bytes/s)
system.mem_ctrl.bw_read::total              131403076                       # Total read bandwidth from this memory (bytes/s)
system.mem_ctrl.bw_inst_read::cpu.inst      107616468                       # Instruction read bandwidth from this memory (bytes/s)
system.mem_ctrl.bw_inst_read::total         107616468                       # Instruction read bandwidth from this memory (bytes/s)
system.mem_ctrl.bw_write::cpu.data            6241376                       # Write bandwidth from this memory (bytes/s)
system.mem_ctrl.bw_write::total               6241376                       # Write bandwidth from this memory (bytes/s)
system.mem_ctrl.bw_total::cpu.inst          107616468                       # Total bandwidth to/from this memory (bytes/s)
system.mem_ctrl.bw_total::cpu.data           30027984                       # Total bandwidth to/from this memory (bytes/s)
system.mem_ctrl.bw_total::total             137644452                       # Total bandwidth to/from this memory (bytes/s)
system.mem_ctrl.readReqs                     87172174                       # Number of read requests accepted
system.mem_ctrl.writeReqs                     7334621                       # Number of write requests accepted
system.mem_ctrl.readBursts                   87172174                       # Number of DRAM read bursts, including those serviced by the write queue
system.mem_ctrl.writeBursts                   7334621                       # Number of DRAM write bursts, including those merged in the write queue
system.mem_ctrl.bytesReadDRAM              4984735232                       # Total number of bytes read from DRAM
system.mem_ctrl.bytesReadWrQ                594283904                       # Total number of bytes read from write queue
system.mem_ctrl.bytesWritten                 83878272                       # Total number of bytes written to DRAM
system.mem_ctrl.bytesReadSys                618507776                       # Total read bytes from the system interface side
system.mem_ctrl.bytesWrittenSys              29377849                       # Total written bytes from the system interface side
system.mem_ctrl.servicedByWrQ                 9285686                       # Number of DRAM read bursts serviced by the write queue
system.mem_ctrl.mergedWrBursts                6023994                       # Number of DRAM write bursts merged with an existing one
system.mem_ctrl.neitherReadNorWriteReqs             0                       # Number of requests that are neither read nor write
system.mem_ctrl.perBankRdBursts::0           63200515                       # Per bank write bursts
system.mem_ctrl.perBankRdBursts::1            4189439                       # Per bank write bursts
system.mem_ctrl.perBankRdBursts::2              67004                       # Per bank write bursts
system.mem_ctrl.perBankRdBursts::3              65077                       # Per bank write bursts
system.mem_ctrl.perBankRdBursts::4              68362                       # Per bank write bursts
system.mem_ctrl.perBankRdBursts::5             140153                       # Per bank write bursts
system.mem_ctrl.perBankRdBursts::6            9533375                       # Per bank write bursts
system.mem_ctrl.perBankRdBursts::7             102635                       # Per bank write bursts
system.mem_ctrl.perBankRdBursts::8              64234                       # Per bank write bursts
system.mem_ctrl.perBankRdBursts::9              64159                       # Per bank write bursts
system.mem_ctrl.perBankRdBursts::10             66811                       # Per bank write bursts
system.mem_ctrl.perBankRdBursts::11             63350                       # Per bank write bursts
system.mem_ctrl.perBankRdBursts::12             61856                       # Per bank write bursts
system.mem_ctrl.perBankRdBursts::13             63758                       # Per bank write bursts
system.mem_ctrl.perBankRdBursts::14             63862                       # Per bank write bursts
system.mem_ctrl.perBankRdBursts::15             71898                       # Per bank write bursts
system.mem_ctrl.perBankWrBursts::0              78260                       # Per bank write bursts
system.mem_ctrl.perBankWrBursts::1              78412                       # Per bank write bursts
system.mem_ctrl.perBankWrBursts::2              78563                       # Per bank write bursts
system.mem_ctrl.perBankWrBursts::3              78595                       # Per bank write bursts
system.mem_ctrl.perBankWrBursts::4              78763                       # Per bank write bursts
system.mem_ctrl.perBankWrBursts::5              78935                       # Per bank write bursts
system.mem_ctrl.perBankWrBursts::6             160896                       # Per bank write bursts
system.mem_ctrl.perBankWrBursts::7              77041                       # Per bank write bursts
system.mem_ctrl.perBankWrBursts::8              74793                       # Per bank write bursts
system.mem_ctrl.perBankWrBursts::9              74938                       # Per bank write bursts
system.mem_ctrl.perBankWrBursts::10             74979                       # Per bank write bursts
system.mem_ctrl.perBankWrBursts::11             75015                       # Per bank write bursts
system.mem_ctrl.perBankWrBursts::12             74926                       # Per bank write bursts
system.mem_ctrl.perBankWrBursts::13             75009                       # Per bank write bursts
system.mem_ctrl.perBankWrBursts::14             75126                       # Per bank write bursts
system.mem_ctrl.perBankWrBursts::15             76347                       # Per bank write bursts
system.mem_ctrl.numRdRetry                          0                       # Number of times read queue was full causing retry
system.mem_ctrl.numWrRetry                          0                       # Number of times write queue was full causing retry
system.mem_ctrl.totGap                   4706950376000                       # Total gap between requests
system.mem_ctrl.readPktSize::0                   7393                       # Read request sizes (log2)
system.mem_ctrl.readPktSize::1                   2599                       # Read request sizes (log2)
system.mem_ctrl.readPktSize::2               19700566                       # Read request sizes (log2)
system.mem_ctrl.readPktSize::3               67461616                       # Read request sizes (log2)
system.mem_ctrl.readPktSize::4                      0                       # Read request sizes (log2)
system.mem_ctrl.readPktSize::5                      0                       # Read request sizes (log2)
system.mem_ctrl.readPktSize::6                      0                       # Read request sizes (log2)
system.mem_ctrl.writePktSize::0                   109                       # Write request sizes (log2)
system.mem_ctrl.writePktSize::1                    20                       # Write request sizes (log2)
system.mem_ctrl.writePktSize::2               7324559                       # Write request sizes (log2)
system.mem_ctrl.writePktSize::3                  9933                       # Write request sizes (log2)
system.mem_ctrl.writePktSize::4                     0                       # Write request sizes (log2)
system.mem_ctrl.writePktSize::5                     0                       # Write request sizes (log2)
system.mem_ctrl.writePktSize::6                     0                       # Write request sizes (log2)
system.mem_ctrl.rdQLenPdf::0                 77886479                       # What read queue length does an incoming req see
system.mem_ctrl.rdQLenPdf::1                        9                       # What read queue length does an incoming req see
system.mem_ctrl.rdQLenPdf::2                        0                       # What read queue length does an incoming req see
system.mem_ctrl.rdQLenPdf::3                        0                       # What read queue length does an incoming req see
system.mem_ctrl.rdQLenPdf::4                        0                       # What read queue length does an incoming req see
system.mem_ctrl.rdQLenPdf::5                        0                       # What read queue length does an incoming req see
system.mem_ctrl.rdQLenPdf::6                        0                       # What read queue length does an incoming req see
system.mem_ctrl.rdQLenPdf::7                        0                       # What read queue length does an incoming req see
system.mem_ctrl.rdQLenPdf::8                        0                       # What read queue length does an incoming req see
system.mem_ctrl.rdQLenPdf::9                        0                       # What read queue length does an incoming req see
system.mem_ctrl.rdQLenPdf::10                       0                       # What read queue length does an incoming req see
system.mem_ctrl.rdQLenPdf::11                       0                       # What read queue length does an incoming req see
system.mem_ctrl.rdQLenPdf::12                       0                       # What read queue length does an incoming req see
system.mem_ctrl.rdQLenPdf::13                       0                       # What read queue length does an incoming req see
system.mem_ctrl.rdQLenPdf::14                       0                       # What read queue length does an incoming req see
system.mem_ctrl.rdQLenPdf::15                       0                       # What read queue length does an incoming req see
system.mem_ctrl.rdQLenPdf::16                       0                       # What read queue length does an incoming req see
system.mem_ctrl.rdQLenPdf::17                       0                       # What read queue length does an incoming req see
system.mem_ctrl.rdQLenPdf::18                       0                       # What read queue length does an incoming req see
system.mem_ctrl.rdQLenPdf::19                       0                       # What read queue length does an incoming req see
system.mem_ctrl.rdQLenPdf::20                       0                       # What read queue length does an incoming req see
system.mem_ctrl.rdQLenPdf::21                       0                       # What read queue length does an incoming req see
system.mem_ctrl.rdQLenPdf::22                       0                       # What read queue length does an incoming req see
system.mem_ctrl.rdQLenPdf::23                       0                       # What read queue length does an incoming req see
system.mem_ctrl.rdQLenPdf::24                       0                       # What read queue length does an incoming req see
system.mem_ctrl.rdQLenPdf::25                       0                       # What read queue length does an incoming req see
system.mem_ctrl.rdQLenPdf::26                       0                       # What read queue length does an incoming req see
system.mem_ctrl.rdQLenPdf::27                       0                       # What read queue length does an incoming req see
system.mem_ctrl.rdQLenPdf::28                       0                       # What read queue length does an incoming req see
system.mem_ctrl.rdQLenPdf::29                       0                       # What read queue length does an incoming req see
system.mem_ctrl.rdQLenPdf::30                       0                       # What read queue length does an incoming req see
system.mem_ctrl.rdQLenPdf::31                       0                       # What read queue length does an incoming req see
system.mem_ctrl.wrQLenPdf::0                        1                       # What write queue length does an incoming req see
system.mem_ctrl.wrQLenPdf::1                        1                       # What write queue length does an incoming req see
system.mem_ctrl.wrQLenPdf::2                        1                       # What write queue length does an incoming req see
system.mem_ctrl.wrQLenPdf::3                        1                       # What write queue length does an incoming req see
system.mem_ctrl.wrQLenPdf::4                        1                       # What write queue length does an incoming req see
system.mem_ctrl.wrQLenPdf::5                        1                       # What write queue length does an incoming req see
system.mem_ctrl.wrQLenPdf::6                        1                       # What write queue length does an incoming req see
system.mem_ctrl.wrQLenPdf::7                        1                       # What write queue length does an incoming req see
system.mem_ctrl.wrQLenPdf::8                        1                       # What write queue length does an incoming req see
system.mem_ctrl.wrQLenPdf::9                        1                       # What write queue length does an incoming req see
system.mem_ctrl.wrQLenPdf::10                       1                       # What write queue length does an incoming req see
system.mem_ctrl.wrQLenPdf::11                       1                       # What write queue length does an incoming req see
system.mem_ctrl.wrQLenPdf::12                       1                       # What write queue length does an incoming req see
system.mem_ctrl.wrQLenPdf::13                       1                       # What write queue length does an incoming req see
system.mem_ctrl.wrQLenPdf::14                       1                       # What write queue length does an incoming req see
system.mem_ctrl.wrQLenPdf::15                       4                       # What write queue length does an incoming req see
system.mem_ctrl.wrQLenPdf::16                       4                       # What write queue length does an incoming req see
system.mem_ctrl.wrQLenPdf::17                   81913                       # What write queue length does an incoming req see
system.mem_ctrl.wrQLenPdf::18                   81913                       # What write queue length does an incoming req see
system.mem_ctrl.wrQLenPdf::19                   81913                       # What write queue length does an incoming req see
system.mem_ctrl.wrQLenPdf::20                   81913                       # What write queue length does an incoming req see
system.mem_ctrl.wrQLenPdf::21                   81913                       # What write queue length does an incoming req see
system.mem_ctrl.wrQLenPdf::22                   81913                       # What write queue length does an incoming req see
system.mem_ctrl.wrQLenPdf::23                   81913                       # What write queue length does an incoming req see
system.mem_ctrl.wrQLenPdf::24                   81913                       # What write queue length does an incoming req see
system.mem_ctrl.wrQLenPdf::25                   81913                       # What write queue length does an incoming req see
system.mem_ctrl.wrQLenPdf::26                   81913                       # What write queue length does an incoming req see
system.mem_ctrl.wrQLenPdf::27                   81913                       # What write queue length does an incoming req see
system.mem_ctrl.wrQLenPdf::28                   81913                       # What write queue length does an incoming req see
system.mem_ctrl.wrQLenPdf::29                   81912                       # What write queue length does an incoming req see
system.mem_ctrl.wrQLenPdf::30                   81912                       # What write queue length does an incoming req see
system.mem_ctrl.wrQLenPdf::31                   81912                       # What write queue length does an incoming req see
system.mem_ctrl.wrQLenPdf::32                   81912                       # What write queue length does an incoming req see
system.mem_ctrl.wrQLenPdf::33                       0                       # What write queue length does an incoming req see
system.mem_ctrl.wrQLenPdf::34                       0                       # What write queue length does an incoming req see
system.mem_ctrl.wrQLenPdf::35                       0                       # What write queue length does an incoming req see
system.mem_ctrl.wrQLenPdf::36                       0                       # What write queue length does an incoming req see
system.mem_ctrl.wrQLenPdf::37                       0                       # What write queue length does an incoming req see
system.mem_ctrl.wrQLenPdf::38                       0                       # What write queue length does an incoming req see
system.mem_ctrl.wrQLenPdf::39                       0                       # What write queue length does an incoming req see
system.mem_ctrl.wrQLenPdf::40                       0                       # What write queue length does an incoming req see
system.mem_ctrl.wrQLenPdf::41                       0                       # What write queue length does an incoming req see
system.mem_ctrl.wrQLenPdf::42                       0                       # What write queue length does an incoming req see
system.mem_ctrl.wrQLenPdf::43                       0                       # What write queue length does an incoming req see
system.mem_ctrl.wrQLenPdf::44                       0                       # What write queue length does an incoming req see
system.mem_ctrl.wrQLenPdf::45                       0                       # What write queue length does an incoming req see
system.mem_ctrl.wrQLenPdf::46                       0                       # What write queue length does an incoming req see
system.mem_ctrl.wrQLenPdf::47                       0                       # What write queue length does an incoming req see
system.mem_ctrl.wrQLenPdf::48                       0                       # What write queue length does an incoming req see
system.mem_ctrl.wrQLenPdf::49                       0                       # What write queue length does an incoming req see
system.mem_ctrl.wrQLenPdf::50                       0                       # What write queue length does an incoming req see
system.mem_ctrl.wrQLenPdf::51                       0                       # What write queue length does an incoming req see
system.mem_ctrl.wrQLenPdf::52                       0                       # What write queue length does an incoming req see
system.mem_ctrl.wrQLenPdf::53                       0                       # What write queue length does an incoming req see
system.mem_ctrl.wrQLenPdf::54                       0                       # What write queue length does an incoming req see
system.mem_ctrl.wrQLenPdf::55                       0                       # What write queue length does an incoming req see
system.mem_ctrl.wrQLenPdf::56                       0                       # What write queue length does an incoming req see
system.mem_ctrl.wrQLenPdf::57                       0                       # What write queue length does an incoming req see
system.mem_ctrl.wrQLenPdf::58                       0                       # What write queue length does an incoming req see
system.mem_ctrl.wrQLenPdf::59                       0                       # What write queue length does an incoming req see
system.mem_ctrl.wrQLenPdf::60                       0                       # What write queue length does an incoming req see
system.mem_ctrl.wrQLenPdf::61                       0                       # What write queue length does an incoming req see
system.mem_ctrl.wrQLenPdf::62                       0                       # What write queue length does an incoming req see
system.mem_ctrl.wrQLenPdf::63                       0                       # What write queue length does an incoming req see
system.mem_ctrl.bytesPerActivate::samples      6167848                       # Bytes accessed per row activation
system.mem_ctrl.bytesPerActivate::mean     821.779515                       # Bytes accessed per row activation
system.mem_ctrl.bytesPerActivate::gmean    704.455279                       # Bytes accessed per row activation
system.mem_ctrl.bytesPerActivate::stdev    305.657371                       # Bytes accessed per row activation
system.mem_ctrl.bytesPerActivate::0-127        314289      5.10%      5.10% # Bytes accessed per row activation
system.mem_ctrl.bytesPerActivate::128-255       170010      2.76%      7.85% # Bytes accessed per row activation
system.mem_ctrl.bytesPerActivate::256-383       101876      1.65%      9.50% # Bytes accessed per row activation
system.mem_ctrl.bytesPerActivate::384-511       644172     10.44%     19.95% # Bytes accessed per row activation
system.mem_ctrl.bytesPerActivate::512-639       269994      4.38%     24.33% # Bytes accessed per row activation
system.mem_ctrl.bytesPerActivate::640-767       266969      4.33%     28.65% # Bytes accessed per row activation
system.mem_ctrl.bytesPerActivate::768-895       296755      4.81%     33.46% # Bytes accessed per row activation
system.mem_ctrl.bytesPerActivate::896-1023       404134      6.55%     40.02% # Bytes accessed per row activation
system.mem_ctrl.bytesPerActivate::1024-1151      3699649     59.98%    100.00% # Bytes accessed per row activation
system.mem_ctrl.bytesPerActivate::total       6167848                       # Bytes accessed per row activation
system.mem_ctrl.rdPerTurnAround::samples        81912                       # Reads before turning the bus around for writes
system.mem_ctrl.rdPerTurnAround::mean      950.840109                       # Reads before turning the bus around for writes
system.mem_ctrl.rdPerTurnAround::stdev   74202.531996                       # Reads before turning the bus around for writes
system.mem_ctrl.rdPerTurnAround::0-1.04858e+06        81911    100.00%    100.00% # Reads before turning the bus around for writes
system.mem_ctrl.rdPerTurnAround::2.09715e+07-2.20201e+07            1      0.00%    100.00% # Reads before turning the bus around for writes
system.mem_ctrl.rdPerTurnAround::total          81912                       # Reads before turning the bus around for writes
system.mem_ctrl.wrPerTurnAround::samples        81912                       # Writes before turning the bus around for reads
system.mem_ctrl.wrPerTurnAround::mean       16.000073                       # Writes before turning the bus around for reads
system.mem_ctrl.wrPerTurnAround::gmean      16.000069                       # Writes before turning the bus around for reads
system.mem_ctrl.wrPerTurnAround::stdev       0.012104                       # Writes before turning the bus around for reads
system.mem_ctrl.wrPerTurnAround::16             81909    100.00%    100.00% # Writes before turning the bus around for reads
system.mem_ctrl.wrPerTurnAround::18                 3      0.00%    100.00% # Writes before turning the bus around for reads
system.mem_ctrl.wrPerTurnAround::total          81912                       # Writes before turning the bus around for reads
system.mem_ctrl.totQLat                  706452558868                       # Total ticks spent queuing
system.mem_ctrl.totMemAccLat             2018216789764                       # Total ticks spent from burst creation until serviced by the DRAM
system.mem_ctrl.totBusLat                292230102976                       # Total ticks spent in databus transfers
system.mem_ctrl.avgQLat                       9070.28                       # Average queueing delay per DRAM burst
system.mem_ctrl.avgBusLat                     3752.00                       # Average bus latency per DRAM burst
system.mem_ctrl.avgMemAccLat                 25912.28                       # Average memory access latency per DRAM burst
system.mem_ctrl.avgRdBW                       1059.02                       # Average DRAM read bandwidth in MiByte/s
system.mem_ctrl.avgWrBW                         17.82                       # Average achieved write bandwidth in MiByte/s
system.mem_ctrl.avgRdBWSys                     131.40                       # Average system read bandwidth in MiByte/s
system.mem_ctrl.avgWrBWSys                       6.24                       # Average system write bandwidth in MiByte/s
system.mem_ctrl.peakBW                       17057.00                       # Theoretical peak bandwidth in MiByte/s
system.mem_ctrl.busUtil                          6.31                       # Data bus utilization in percentage
system.mem_ctrl.busUtilRead                      6.21                       # Data bus utilization in percentage for reads
system.mem_ctrl.busUtilWrite                     0.10                       # Data bus utilization in percentage for writes
system.mem_ctrl.avgRdQLen                        1.00                       # Average read queue length when enqueuing
system.mem_ctrl.avgWrQLen                       24.20                       # Average write queue length when enqueuing
system.mem_ctrl.readRowHits                  71861233                       # Number of row buffer hits during reads
system.mem_ctrl.writeRowHits                  1167998                       # Number of row buffer hits during writes
system.mem_ctrl.readRowHitRate                  92.26                       # Row buffer hit rate for reads
system.mem_ctrl.writeRowHitRate                 89.12                       # Row buffer hit rate for writes
system.mem_ctrl.avgGap                       49805.42                       # Average gap between requests
system.mem_ctrl.pageHitRate                     92.21                       # Row buffer hit rate, read and write combined
system.mem_ctrl_0.actEnergy              63406150097.471992                       # Energy for activate commands per rank (pJ)
system.mem_ctrl_0.preEnergy              31296609767.807999                       # Energy for precharge commands per rank (pJ)
system.mem_ctrl_0.readEnergy             512052743623.679993                       # Energy for read commands per rank (pJ)
system.mem_ctrl_0.writeEnergy            3609553594.080000                       # Energy for write commands per rank (pJ)
system.mem_ctrl_0.refreshEnergy          389644631451.935974                       # Energy for refresh commands per rank (pJ)
system.mem_ctrl_0.actBackEnergy          1126211340149.280029                       # Energy for active background per rank (pJ)
system.mem_ctrl_0.preBackEnergy          7720158539.351999                       # Energy for precharge background per rank (pJ)
system.mem_ctrl_0.actPowerDownEnergy     1349505113310.815918                       # Energy for active power-down per rank (pJ)
system.mem_ctrl_0.prePowerDownEnergy     344668872.912000                       # Energy for precharge power-down per rank (pJ)
system.mem_ctrl_0.selfRefreshEnergy      10823814.624000                       # Energy for self refresh per rank (pJ)
system.mem_ctrl_0.totalEnergy            3483801793221.959961                       # Total energy per rank (pJ)
system.mem_ctrl_0.averagePower             740.139891                       # Core power per rank (mW)
system.mem_ctrl_0.totalIdleTime          2556587506806                       # Total Idle time Per DRAM Rank
system.mem_ctrl_0.memoryStateTime::IDLE    1906170358                       # Time in different power states
system.mem_ctrl_0.memoryStateTime::REF   157161438000                       # Time in different power states
system.mem_ctrl_0.memoryStateTime::SREF      37823160                       # Time in different power states
system.mem_ctrl_0.memoryStateTime::PRE_PDN    667996698                       # Time in different power states
system.mem_ctrl_0.memoryStateTime::ACT   1991294740678                       # Time in different power states
system.mem_ctrl_0.memoryStateTime::ACT_PDN 2555882281106                       # Time in different power states
system.mem_ctrl_1.actEnergy              1576001726.208000                       # Energy for activate commands per rank (pJ)
system.mem_ctrl_1.preEnergy              777877486.848000                       # Energy for precharge commands per rank (pJ)
system.mem_ctrl_1.readEnergy             3441151407.456000                       # Energy for read commands per rank (pJ)
system.mem_ctrl_1.writeEnergy            3058391577.696000                       # Energy for write commands per rank (pJ)
system.mem_ctrl_1.refreshEnergy          183855267173.760010                       # Energy for refresh commands per rank (pJ)
system.mem_ctrl_1.actBackEnergy          216387516768.191986                       # Energy for active background per rank (pJ)
system.mem_ctrl_1.preBackEnergy          12532895227.775999                       # Energy for precharge background per rank (pJ)
system.mem_ctrl_1.actPowerDownEnergy     286009124799.552002                       # Energy for active power-down per rank (pJ)
system.mem_ctrl_1.prePowerDownEnergy     333661812724.128052                       # Energy for precharge power-down per rank (pJ)
system.mem_ctrl_1.selfRefreshEnergy      787069570029.119995                       # Energy for self refresh per rank (pJ)
system.mem_ctrl_1.totalEnergy            1828369781925.456055                       # Total energy per rank (pJ)
system.mem_ctrl_1.averagePower             388.440414                       # Core power per rank (mW)
system.mem_ctrl_1.totalIdleTime          4268897804406                       # Total Idle time Per DRAM Rank
system.mem_ctrl_1.memoryStateTime::IDLE   22616716910                       # Time in different power states
system.mem_ctrl_1.memoryStateTime::REF    74649284000                       # Time in different power states
system.mem_ctrl_1.memoryStateTime::SREF  3080582649030                       # Time in different power states
system.mem_ctrl_1.memoryStateTime::PRE_PDN 646631291272                       # Time in different power states
system.mem_ctrl_1.memoryStateTime::ACT   340786644684                       # Time in different power states
system.mem_ctrl_1.memoryStateTime::ACT_PDN 541683864104                       # Time in different power states
system.pwrStateResidencyTicks::UNDEFINED 4706950450000                       # Cumulative time (in ticks) in various power states
system.cpu.dtb.walker.pwrStateResidencyTicks::UNDEFINED 4706950450000                       # Cumulative time (in ticks) in various power states
system.cpu.dtb.rdAccesses                    23854000                       # TLB accesses on read requests
system.cpu.dtb.wrAccesses                     7334621                       # TLB accesses on write requests
system.cpu.dtb.rdMisses                          1229                       # TLB misses on read requests
system.cpu.dtb.wrMisses                        116843                       # TLB misses on write requests
system.cpu.apic_clk_domain.clock                16000                       # Clock period in ticks
system.cpu.interrupts.pwrStateResidencyTicks::UNDEFINED 4706950450000                       # Cumulative time (in ticks) in various power states
system.cpu.itb.walker.pwrStateResidencyTicks::UNDEFINED 4706950450000                       # Cumulative time (in ticks) in various power states
system.cpu.itb.rdAccesses                           0                       # TLB accesses on read requests
system.cpu.itb.wrAccesses                    63318174                       # TLB accesses on write requests
system.cpu.itb.rdMisses                             0                       # TLB misses on read requests
system.cpu.itb.wrMisses                            89                       # TLB misses on write requests
system.cpu.workload.numSyscalls                    33                       # Number of system calls
system.cpu.pwrStateResidencyTicks::ON    4706950450000                       # Cumulative time (in ticks) in various power states
system.cpu.numCycles                       4706950450                       # number of cpu cycles simulated
system.cpu.numWorkItemsStarted                      0                       # number of work items this cpu started
system.cpu.numWorkItemsCompleted                    0                       # number of work items this cpu completed
system.cpu.committedInsts                    47700244                       # Number of instructions committed
system.cpu.committedOps                      82046706                       # Number of ops (including micro ops) committed
system.cpu.num_int_alu_accesses              82043407                       # Number of integer alu accesses
system.cpu.num_fp_alu_accesses                   3447                       # Number of float alu accesses
system.cpu.num_vec_alu_accesses                     0                       # Number of vector alu accesses
system.cpu.num_func_calls                        1358                       # number of times a function call or return occured
system.cpu.num_conditional_control_insts      5151277                       # number of instructions that are conditional controls
system.cpu.num_int_insts                     82043407                       # number of integer instructions
system.cpu.num_fp_insts                          3447                       # number of float instructions
system.cpu.num_vec_insts                            0                       # number of vector instructions
system.cpu.num_int_register_reads           173517092                       # number of times the integer registers were read
system.cpu.num_int_register_writes           69557594                       # number of times the integer registers were written
system.cpu.num_fp_register_reads                 5525                       # number of times the floating registers were read
system.cpu.num_fp_register_writes                2660                       # number of times the floating registers were written
system.cpu.num_vec_register_reads                   0                       # number of times the vector registers were read
system.cpu.num_vec_register_writes                  0                       # number of times the vector registers were written
system.cpu.num_cc_register_reads             26790677                       # number of times the CC registers were read
system.cpu.num_cc_register_writes            31250784                       # number of times the CC registers were written
system.cpu.num_mem_refs                      31188612                       # number of memory refs
system.cpu.num_load_insts                    23853991                       # Number of load instructions
system.cpu.num_store_insts                    7334621                       # Number of store instructions
system.cpu.num_idle_cycles                          0                       # Number of idle cycles
system.cpu.num_busy_cycles                 4706950450                       # Number of busy cycles
system.cpu.not_idle_fraction                        1                       # Percentage of non-idle cycles
system.cpu.idle_fraction                            0                       # Percentage of idle cycles
system.cpu.Branches                           5154587                       # Number of branches fetched
system.cpu.op_class::No_OpClass                  1287      0.00%      0.00% # Class of executed instruction
system.cpu.op_class::IntAlu                  50852257     61.98%     61.98% # Class of executed instruction
system.cpu.op_class::IntMult                     1192      0.00%     61.98% # Class of executed instruction
system.cpu.op_class::IntDiv                      1131      0.00%     61.98% # Class of executed instruction
system.cpu.op_class::FloatAdd                    2227      0.00%     61.99% # Class of executed instruction
system.cpu.op_class::FloatCmp                       0      0.00%     61.99% # Class of executed instruction
system.cpu.op_class::FloatCvt                       0      0.00%     61.99% # Class of executed instruction
system.cpu.op_class::FloatMult                      0      0.00%     61.99% # Class of executed instruction
system.cpu.op_class::FloatMultAcc                   0      0.00%     61.99% # Class of executed instruction
system.cpu.op_class::FloatDiv                       0      0.00%     61.99% # Class of executed instruction
system.cpu.op_class::FloatMisc                      0      0.00%     61.99% # Class of executed instruction
system.cpu.op_class::FloatSqrt                      0      0.00%     61.99% # Class of executed instruction
system.cpu.op_class::SimdAdd                        0      0.00%     61.99% # Class of executed instruction
system.cpu.op_class::SimdAddAcc                     0      0.00%     61.99% # Class of executed instruction
system.cpu.op_class::SimdAlu                        0      0.00%     61.99% # Class of executed instruction
system.cpu.op_class::SimdCmp                        0      0.00%     61.99% # Class of executed instruction
system.cpu.op_class::SimdCvt                        0      0.00%     61.99% # Class of executed instruction
system.cpu.op_class::SimdMisc                       0      0.00%     61.99% # Class of executed instruction
system.cpu.op_class::SimdMult                       0      0.00%     61.99% # Class of executed instruction
system.cpu.op_class::SimdMultAcc                    0      0.00%     61.99% # Class of executed instruction
system.cpu.op_class::SimdShift                      0      0.00%     61.99% # Class of executed instruction
system.cpu.op_class::SimdShiftAcc                   0      0.00%     61.99% # Class of executed instruction
system.cpu.op_class::SimdSqrt                       0      0.00%     61.99% # Class of executed instruction
system.cpu.op_class::SimdFloatAdd                   0      0.00%     61.99% # Class of executed instruction
system.cpu.op_class::SimdFloatAlu                   0      0.00%     61.99% # Class of executed instruction
system.cpu.op_class::SimdFloatCmp                   0      0.00%     61.99% # Class of executed instruction
system.cpu.op_class::SimdFloatCvt                   0      0.00%     61.99% # Class of executed instruction
system.cpu.op_class::SimdFloatDiv                   0      0.00%     61.99% # Class of executed instruction
system.cpu.op_class::SimdFloatMisc                  0      0.00%     61.99% # Class of executed instruction
system.cpu.op_class::SimdFloatMult                  0      0.00%     61.99% # Class of executed instruction
system.cpu.op_class::SimdFloatMultAcc               0      0.00%     61.99% # Class of executed instruction
system.cpu.op_class::SimdFloatSqrt                  0      0.00%     61.99% # Class of executed instruction
system.cpu.op_class::MemRead                 23853209     29.07%     91.06% # Class of executed instruction
system.cpu.op_class::MemWrite                 7334237      8.94%    100.00% # Class of executed instruction
system.cpu.op_class::FloatMemRead                 782      0.00%    100.00% # Class of executed instruction
system.cpu.op_class::FloatMemWrite                384      0.00%    100.00% # Class of executed instruction
system.cpu.op_class::IprAccess                      0      0.00%    100.00% # Class of executed instruction
system.cpu.op_class::InstPrefetch                   0      0.00%    100.00% # Class of executed instruction
system.cpu.op_class::total                   82046706                       # Class of executed instruction
system.membus.snoop_filter.tot_requests             0                       # Total number of requests made to the snoop filter.
system.membus.snoop_filter.hit_single_requests            0                       # Number of requests hitting in the snoop filter with a single holder of the requested data.
system.membus.snoop_filter.hit_multi_requests            0                       # Number of requests hitting in the snoop filter with multiple (>1) holders of the requested data.
system.membus.snoop_filter.tot_snoops               0                       # Total number of snoops made to the snoop filter.
system.membus.snoop_filter.hit_single_snoops            0                       # Number of snoops hitting in the snoop filter with a single holder of the requested data.
system.membus.snoop_filter.hit_multi_snoops            0                       # Number of snoops hitting in the snoop filter with multiple (>1) holders of the requested data.
system.membus.pwrStateResidencyTicks::UNDEFINED 4706950450000                       # Cumulative time (in ticks) in various power states
system.membus.trans_dist::ReadReq            87172174                       # Transaction distribution
system.membus.trans_dist::ReadResp           87172173                       # Transaction distribution
system.membus.trans_dist::WriteReq            7334621                       # Transaction distribution
system.membus.trans_dist::WriteResp           7334621                       # Transaction distribution
system.membus.pkt_count_system.cpu.icache_port::system.mem_ctrl.port    126636347                       # Packet count per connected master and slave (bytes)
system.membus.pkt_count_system.cpu.icache_port::total    126636347                       # Packet count per connected master and slave (bytes)
system.membus.pkt_count_system.cpu.dcache_port::system.mem_ctrl.port     62377242                       # Packet count per connected master and slave (bytes)
system.membus.pkt_count_system.cpu.dcache_port::total     62377242                       # Packet count per connected master and slave (bytes)
system.membus.pkt_count::total              189013589                       # Packet count per connected master and slave (bytes)
system.membus.pkt_size_system.cpu.icache_port::system.mem_ctrl.port    506545384                       # Cumulative packet size per connected master and slave (bytes)
system.membus.pkt_size_system.cpu.icache_port::total    506545384                       # Cumulative packet size per connected master and slave (bytes)
system.membus.pkt_size_system.cpu.dcache_port::system.mem_ctrl.port    141340233                       # Cumulative packet size per connected master and slave (bytes)
system.membus.pkt_size_system.cpu.dcache_port::total    141340233                       # Cumulative packet size per connected master and slave (bytes)
system.membus.pkt_size::total               647885617                       # Cumulative packet size per connected master and slave (bytes)
system.membus.snoops                                0                       # Total snoops (count)
system.membus.snoopTraffic                          0                       # Total snoop traffic (bytes)
system.membus.snoop_fanout::samples          94506795                       # Request fanout histogram
system.membus.snoop_fanout::mean                    0                       # Request fanout histogram
system.membus.snoop_fanout::stdev                   0                       # Request fanout histogram
system.membus.snoop_fanout::underflows              0      0.00%      0.00% # Request fanout histogram
system.membus.snoop_fanout::0                94506795    100.00%    100.00% # Request fanout histogram
system.membus.snoop_fanout::1                       0      0.00%    100.00% # Request fanout histogram
system.membus.snoop_fanout::overflows               0      0.00%    100.00% # Request fanout histogram
system.membus.snoop_fanout::min_value               0                       # Request fanout histogram
system.membus.snoop_fanout::max_value               0                       # Request fanout histogram
system.membus.snoop_fanout::total            94506795                       # Request fanout histogram
system.membus.reqLayer2.occupancy        101841416000                       # Layer occupancy (ticks)
system.membus.reqLayer2.utilization               2.2                       # Layer utilization (%)
system.membus.respLayer0.occupancy       136543993102                       # Layer occupancy (ticks)
system.membus.respLayer0.utilization              2.9                       # Layer utilization (%)
system.membus.respLayer1.occupancy        57533766976                       # Layer occupancy (ticks)
system.membus.respLayer1.utilization              1.2                       # Layer utilization (%)

---------- End Simulation Statistics   ----------
