
---------- Begin Simulation Statistics ----------
sim_seconds                                  1.142673                       # Number of seconds simulated
sim_ticks                                1142673112800                       # Number of ticks simulated
final_tick                               1142673112800                       # Number of ticks from beginning of simulation (restored from checkpoints and never reset)
sim_freq                                 1000000000000                       # Frequency of simulated ticks
host_inst_rate                                 121708                       # Simulator instruction rate (inst/s)
host_op_rate                                   209344                       # Simulator op (including micro ops) rate (op/s)
host_tick_rate                             2915558881                       # Simulator tick rate (ticks/s)
host_mem_usage                                 668416                       # Number of bytes of host memory used
host_seconds                                   391.92                       # Real time elapsed on the host
sim_insts                                    47700244                       # Number of instructions simulated
sim_ops                                      82046706                       # Number of ops (including micro ops) simulated
system.clk_domain.voltage_domain.voltage            1                       # Voltage in Volts
system.clk_domain.clock                           400                       # Clock period in ticks
system.mem_ctrl.pwrStateResidencyTicks::UNDEFINED 1142673112800                       # Cumulative time (in ticks) in various power states
system.mem_ctrl.bytes_read::cpu.inst       1171897280                       # Number of bytes read from this memory
system.mem_ctrl.bytes_read::cpu.data        124182744                       # Number of bytes read from this memory
system.mem_ctrl.bytes_read::total          1296080024                       # Number of bytes read from this memory
system.mem_ctrl.bytes_inst_read::cpu.inst   1171897280                       # Number of instructions bytes read from this memory
system.mem_ctrl.bytes_inst_read::total     1171897280                       # Number of instructions bytes read from this memory
system.mem_ctrl.bytes_written::cpu.data      29377849                       # Number of bytes written to this memory
system.mem_ctrl.bytes_written::total         29377849                       # Number of bytes written to this memory
system.mem_ctrl.num_reads::cpu.inst          18310895                       # Number of read requests responded to by this memory
system.mem_ctrl.num_reads::cpu.data          26903593                       # Number of read requests responded to by this memory
system.mem_ctrl.num_reads::total             45214488                       # Number of read requests responded to by this memory
system.mem_ctrl.num_writes::cpu.data          7334621                       # Number of write requests responded to by this memory
system.mem_ctrl.num_writes::total             7334621                       # Number of write requests responded to by this memory
system.mem_ctrl.bw_read::cpu.inst          1025575265                       # Total read bandwidth from this memory (bytes/s)
system.mem_ctrl.bw_read::cpu.data           108677401                       # Total read bandwidth from this memory (bytes/s)
system.mem_ctrl.bw_read::total             1134252666                       # Total read bandwidth from this memory (bytes/s)
system.mem_ctrl.bw_inst_read::cpu.inst     1025575265                       # Instruction read bandwidth from this memory (bytes/s)
system.mem_ctrl.bw_inst_read::total        1025575265                       # Instruction read bandwidth from this memory (bytes/s)
system.mem_ctrl.bw_write::cpu.data           25709758                       # Write bandwidth from this memory (bytes/s)
system.mem_ctrl.bw_write::total              25709758                       # Write bandwidth from this memory (bytes/s)
system.mem_ctrl.bw_total::cpu.inst         1025575265                       # Total bandwidth to/from this memory (bytes/s)
system.mem_ctrl.bw_total::cpu.data          134387159                       # Total bandwidth to/from this memory (bytes/s)
system.mem_ctrl.bw_total::total            1159962423                       # Total bandwidth to/from this memory (bytes/s)
system.mem_ctrl.readReqs                     45214489                       # Number of read requests accepted
system.mem_ctrl.writeReqs                     7334621                       # Number of write requests accepted
system.mem_ctrl.readBursts                   45214489                       # Number of DRAM read bursts, including those serviced by the write queue
system.mem_ctrl.writeBursts                   7334621                       # Number of DRAM write bursts, including those merged in the write queue
system.mem_ctrl.bytesReadDRAM              2298706624                       # Total number of bytes read from DRAM
system.mem_ctrl.bytesReadWrQ                595020672                       # Total number of bytes read from write queue
system.mem_ctrl.bytesWritten                 82817152                       # Total number of bytes written to DRAM
system.mem_ctrl.bytesReadSys               1296080088                       # Total read bytes from the system interface side
system.mem_ctrl.bytesWrittenSys              29377849                       # Total written bytes from the system interface side
system.mem_ctrl.servicedByWrQ                 9297198                       # Number of DRAM read bursts serviced by the write queue
system.mem_ctrl.mergedWrBursts                6040581                       # Number of DRAM write bursts merged with an existing one
system.mem_ctrl.neitherReadNorWriteReqs             0                       # Number of requests that are neither read nor write
system.mem_ctrl.perBankRdBursts::0           18324834                       # Per bank write bursts
system.mem_ctrl.perBankRdBursts::1            4188870                       # Per bank write bursts
system.mem_ctrl.perBankRdBursts::2              65233                       # Per bank write bursts
system.mem_ctrl.perBankRdBursts::3              64526                       # Per bank write bursts
system.mem_ctrl.perBankRdBursts::4              66679                       # Per bank write bursts
system.mem_ctrl.perBankRdBursts::5              93978                       # Per bank write bursts
system.mem_ctrl.perBankRdBursts::6           12525765                       # Per bank write bursts
system.mem_ctrl.perBankRdBursts::7              77752                       # Per bank write bursts
system.mem_ctrl.perBankRdBursts::8              63544                       # Per bank write bursts
system.mem_ctrl.perBankRdBursts::9              63417                       # Per bank write bursts
system.mem_ctrl.perBankRdBursts::10             64594                       # Per bank write bursts
system.mem_ctrl.perBankRdBursts::11             64007                       # Per bank write bursts
system.mem_ctrl.perBankRdBursts::12             61842                       # Per bank write bursts
system.mem_ctrl.perBankRdBursts::13             62435                       # Per bank write bursts
system.mem_ctrl.perBankRdBursts::14             62794                       # Per bank write bursts
system.mem_ctrl.perBankRdBursts::15             67021                       # Per bank write bursts
system.mem_ctrl.perBankWrBursts::0              77578                       # Per bank write bursts
system.mem_ctrl.perBankWrBursts::1              78134                       # Per bank write bursts
system.mem_ctrl.perBankWrBursts::2              78254                       # Per bank write bursts
system.mem_ctrl.perBankWrBursts::3              77808                       # Per bank write bursts
system.mem_ctrl.perBankWrBursts::4              77920                       # Per bank write bursts
system.mem_ctrl.perBankWrBursts::5              78055                       # Per bank write bursts
system.mem_ctrl.perBankWrBursts::6             148459                       # Per bank write bursts
system.mem_ctrl.perBankWrBursts::7              76611                       # Per bank write bursts
system.mem_ctrl.perBankWrBursts::8              74793                       # Per bank write bursts
system.mem_ctrl.perBankWrBursts::9              74942                       # Per bank write bursts
system.mem_ctrl.perBankWrBursts::10             74987                       # Per bank write bursts
system.mem_ctrl.perBankWrBursts::11             75021                       # Per bank write bursts
system.mem_ctrl.perBankWrBursts::12             74948                       # Per bank write bursts
system.mem_ctrl.perBankWrBursts::13             75020                       # Per bank write bursts
system.mem_ctrl.perBankWrBursts::14             75126                       # Per bank write bursts
system.mem_ctrl.perBankWrBursts::15             76362                       # Per bank write bursts
system.mem_ctrl.numRdRetry                          0                       # Number of times read queue was full causing retry
system.mem_ctrl.numWrRetry                          0                       # Number of times write queue was full causing retry
system.mem_ctrl.totGap                   1142673110000                       # Total gap between requests
system.mem_ctrl.readPktSize::0                   7598                       # Read request sizes (log2)
system.mem_ctrl.readPktSize::1                   2618                       # Read request sizes (log2)
system.mem_ctrl.readPktSize::2               22744273                       # Read request sizes (log2)
system.mem_ctrl.readPktSize::3                4149104                       # Read request sizes (log2)
system.mem_ctrl.readPktSize::4                      0                       # Read request sizes (log2)
system.mem_ctrl.readPktSize::5                      0                       # Read request sizes (log2)
system.mem_ctrl.readPktSize::6               18310896                       # Read request sizes (log2)
system.mem_ctrl.writePktSize::0                   109                       # Write request sizes (log2)
system.mem_ctrl.writePktSize::1                    20                       # Write request sizes (log2)
system.mem_ctrl.writePktSize::2               7324559                       # Write request sizes (log2)
system.mem_ctrl.writePktSize::3                  9933                       # Write request sizes (log2)
system.mem_ctrl.writePktSize::4                     0                       # Write request sizes (log2)
system.mem_ctrl.writePktSize::5                     0                       # Write request sizes (log2)
system.mem_ctrl.writePktSize::6                     0                       # Write request sizes (log2)
system.mem_ctrl.rdQLenPdf::0                 20603765                       # What read queue length does an incoming req see
system.mem_ctrl.rdQLenPdf::1                 15308852                       # What read queue length does an incoming req see
system.mem_ctrl.rdQLenPdf::2                     4674                       # What read queue length does an incoming req see
system.mem_ctrl.rdQLenPdf::3                        0                       # What read queue length does an incoming req see
system.mem_ctrl.rdQLenPdf::4                        0                       # What read queue length does an incoming req see
system.mem_ctrl.rdQLenPdf::5                        0                       # What read queue length does an incoming req see
system.mem_ctrl.rdQLenPdf::6                        0                       # What read queue length does an incoming req see
system.mem_ctrl.rdQLenPdf::7                        0                       # What read queue length does an incoming req see
system.mem_ctrl.rdQLenPdf::8                        0                       # What read queue length does an incoming req see
system.mem_ctrl.rdQLenPdf::9                        0                       # What read queue length does an incoming req see
system.mem_ctrl.rdQLenPdf::10                       0                       # What read queue length does an incoming req see
system.mem_ctrl.rdQLenPdf::11                       0                       # What read queue length does an incoming req see
system.mem_ctrl.rdQLenPdf::12                       0                       # What read queue length does an incoming req see
system.mem_ctrl.rdQLenPdf::13                       0                       # What read queue length does an incoming req see
system.mem_ctrl.rdQLenPdf::14                       0                       # What read queue length does an incoming req see
system.mem_ctrl.rdQLenPdf::15                       0                       # What read queue length does an incoming req see
system.mem_ctrl.rdQLenPdf::16                       0                       # What read queue length does an incoming req see
system.mem_ctrl.rdQLenPdf::17                       0                       # What read queue length does an incoming req see
system.mem_ctrl.rdQLenPdf::18                       0                       # What read queue length does an incoming req see
system.mem_ctrl.rdQLenPdf::19                       0                       # What read queue length does an incoming req see
system.mem_ctrl.rdQLenPdf::20                       0                       # What read queue length does an incoming req see
system.mem_ctrl.rdQLenPdf::21                       0                       # What read queue length does an incoming req see
system.mem_ctrl.rdQLenPdf::22                       0                       # What read queue length does an incoming req see
system.mem_ctrl.rdQLenPdf::23                       0                       # What read queue length does an incoming req see
system.mem_ctrl.rdQLenPdf::24                       0                       # What read queue length does an incoming req see
system.mem_ctrl.rdQLenPdf::25                       0                       # What read queue length does an incoming req see
system.mem_ctrl.rdQLenPdf::26                       0                       # What read queue length does an incoming req see
system.mem_ctrl.rdQLenPdf::27                       0                       # What read queue length does an incoming req see
system.mem_ctrl.rdQLenPdf::28                       0                       # What read queue length does an incoming req see
system.mem_ctrl.rdQLenPdf::29                       0                       # What read queue length does an incoming req see
system.mem_ctrl.rdQLenPdf::30                       0                       # What read queue length does an incoming req see
system.mem_ctrl.rdQLenPdf::31                       0                       # What read queue length does an incoming req see
system.mem_ctrl.wrQLenPdf::0                        1                       # What write queue length does an incoming req see
system.mem_ctrl.wrQLenPdf::1                        1                       # What write queue length does an incoming req see
system.mem_ctrl.wrQLenPdf::2                        1                       # What write queue length does an incoming req see
system.mem_ctrl.wrQLenPdf::3                        1                       # What write queue length does an incoming req see
system.mem_ctrl.wrQLenPdf::4                        1                       # What write queue length does an incoming req see
system.mem_ctrl.wrQLenPdf::5                        1                       # What write queue length does an incoming req see
system.mem_ctrl.wrQLenPdf::6                        1                       # What write queue length does an incoming req see
system.mem_ctrl.wrQLenPdf::7                        1                       # What write queue length does an incoming req see
system.mem_ctrl.wrQLenPdf::8                        1                       # What write queue length does an incoming req see
system.mem_ctrl.wrQLenPdf::9                        1                       # What write queue length does an incoming req see
system.mem_ctrl.wrQLenPdf::10                       1                       # What write queue length does an incoming req see
system.mem_ctrl.wrQLenPdf::11                       1                       # What write queue length does an incoming req see
system.mem_ctrl.wrQLenPdf::12                       1                       # What write queue length does an incoming req see
system.mem_ctrl.wrQLenPdf::13                       1                       # What write queue length does an incoming req see
system.mem_ctrl.wrQLenPdf::14                       1                       # What write queue length does an incoming req see
system.mem_ctrl.wrQLenPdf::15                     184                       # What write queue length does an incoming req see
system.mem_ctrl.wrQLenPdf::16                     376                       # What write queue length does an incoming req see
system.mem_ctrl.wrQLenPdf::17                   80839                       # What write queue length does an incoming req see
system.mem_ctrl.wrQLenPdf::18                   80841                       # What write queue length does an incoming req see
system.mem_ctrl.wrQLenPdf::19                   80843                       # What write queue length does an incoming req see
system.mem_ctrl.wrQLenPdf::20                   80844                       # What write queue length does an incoming req see
system.mem_ctrl.wrQLenPdf::21                   80844                       # What write queue length does an incoming req see
system.mem_ctrl.wrQLenPdf::22                   80841                       # What write queue length does an incoming req see
system.mem_ctrl.wrQLenPdf::23                   80842                       # What write queue length does an incoming req see
system.mem_ctrl.wrQLenPdf::24                   80841                       # What write queue length does an incoming req see
system.mem_ctrl.wrQLenPdf::25                   80842                       # What write queue length does an incoming req see
system.mem_ctrl.wrQLenPdf::26                   80841                       # What write queue length does an incoming req see
system.mem_ctrl.wrQLenPdf::27                   80842                       # What write queue length does an incoming req see
system.mem_ctrl.wrQLenPdf::28                   80841                       # What write queue length does an incoming req see
system.mem_ctrl.wrQLenPdf::29                   80841                       # What write queue length does an incoming req see
system.mem_ctrl.wrQLenPdf::30                   80841                       # What write queue length does an incoming req see
system.mem_ctrl.wrQLenPdf::31                   80841                       # What write queue length does an incoming req see
system.mem_ctrl.wrQLenPdf::32                   80841                       # What write queue length does an incoming req see
system.mem_ctrl.wrQLenPdf::33                       0                       # What write queue length does an incoming req see
system.mem_ctrl.wrQLenPdf::34                       0                       # What write queue length does an incoming req see
system.mem_ctrl.wrQLenPdf::35                       0                       # What write queue length does an incoming req see
system.mem_ctrl.wrQLenPdf::36                       0                       # What write queue length does an incoming req see
system.mem_ctrl.wrQLenPdf::37                       0                       # What write queue length does an incoming req see
system.mem_ctrl.wrQLenPdf::38                       0                       # What write queue length does an incoming req see
system.mem_ctrl.wrQLenPdf::39                       0                       # What write queue length does an incoming req see
system.mem_ctrl.wrQLenPdf::40                       0                       # What write queue length does an incoming req see
system.mem_ctrl.wrQLenPdf::41                       0                       # What write queue length does an incoming req see
system.mem_ctrl.wrQLenPdf::42                       0                       # What write queue length does an incoming req see
system.mem_ctrl.wrQLenPdf::43                       0                       # What write queue length does an incoming req see
system.mem_ctrl.wrQLenPdf::44                       0                       # What write queue length does an incoming req see
system.mem_ctrl.wrQLenPdf::45                       0                       # What write queue length does an incoming req see
system.mem_ctrl.wrQLenPdf::46                       0                       # What write queue length does an incoming req see
system.mem_ctrl.wrQLenPdf::47                       0                       # What write queue length does an incoming req see
system.mem_ctrl.wrQLenPdf::48                       0                       # What write queue length does an incoming req see
system.mem_ctrl.wrQLenPdf::49                       0                       # What write queue length does an incoming req see
system.mem_ctrl.wrQLenPdf::50                       0                       # What write queue length does an incoming req see
system.mem_ctrl.wrQLenPdf::51                       0                       # What write queue length does an incoming req see
system.mem_ctrl.wrQLenPdf::52                       0                       # What write queue length does an incoming req see
system.mem_ctrl.wrQLenPdf::53                       0                       # What write queue length does an incoming req see
system.mem_ctrl.wrQLenPdf::54                       0                       # What write queue length does an incoming req see
system.mem_ctrl.wrQLenPdf::55                       0                       # What write queue length does an incoming req see
system.mem_ctrl.wrQLenPdf::56                       0                       # What write queue length does an incoming req see
system.mem_ctrl.wrQLenPdf::57                       0                       # What write queue length does an incoming req see
system.mem_ctrl.wrQLenPdf::58                       0                       # What write queue length does an incoming req see
system.mem_ctrl.wrQLenPdf::59                       0                       # What write queue length does an incoming req see
system.mem_ctrl.wrQLenPdf::60                       0                       # What write queue length does an incoming req see
system.mem_ctrl.wrQLenPdf::61                       0                       # What write queue length does an incoming req see
system.mem_ctrl.wrQLenPdf::62                       0                       # What write queue length does an incoming req see
system.mem_ctrl.wrQLenPdf::63                       0                       # What write queue length does an incoming req see
system.mem_ctrl.bytesPerActivate::samples      3009069                       # Bytes accessed per row activation
system.mem_ctrl.bytesPerActivate::mean     791.447795                       # Bytes accessed per row activation
system.mem_ctrl.bytesPerActivate::gmean    605.743179                       # Bytes accessed per row activation
system.mem_ctrl.bytesPerActivate::stdev    366.888738                       # Bytes accessed per row activation
system.mem_ctrl.bytesPerActivate::0-127        317259     10.54%     10.54% # Bytes accessed per row activation
system.mem_ctrl.bytesPerActivate::128-255       172730      5.74%     16.28% # Bytes accessed per row activation
system.mem_ctrl.bytesPerActivate::256-383       155222      5.16%     21.44% # Bytes accessed per row activation
system.mem_ctrl.bytesPerActivate::384-511        86861      2.89%     24.33% # Bytes accessed per row activation
system.mem_ctrl.bytesPerActivate::512-639        96464      3.21%     27.53% # Bytes accessed per row activation
system.mem_ctrl.bytesPerActivate::640-767        49920      1.66%     29.19% # Bytes accessed per row activation
system.mem_ctrl.bytesPerActivate::768-895        46332      1.54%     30.73% # Bytes accessed per row activation
system.mem_ctrl.bytesPerActivate::896-1023        76807      2.55%     33.29% # Bytes accessed per row activation
system.mem_ctrl.bytesPerActivate::1024-1151      2007474     66.71%    100.00% # Bytes accessed per row activation
system.mem_ctrl.bytesPerActivate::total       3009069                       # Bytes accessed per row activation
system.mem_ctrl.rdPerTurnAround::samples        80841                       # Reads before turning the bus around for writes
system.mem_ctrl.rdPerTurnAround::mean      444.293279                       # Reads before turning the bus around for writes
system.mem_ctrl.rdPerTurnAround::gmean     190.982456                       # Reads before turning the bus around for writes
system.mem_ctrl.rdPerTurnAround::stdev   48412.054117                       # Reads before turning the bus around for writes
system.mem_ctrl.rdPerTurnAround::0-524287        80840    100.00%    100.00% # Reads before turning the bus around for writes
system.mem_ctrl.rdPerTurnAround::1.36315e+07-1.41558e+07            1      0.00%    100.00% # Reads before turning the bus around for writes
system.mem_ctrl.rdPerTurnAround::total          80841                       # Reads before turning the bus around for writes
system.mem_ctrl.wrPerTurnAround::samples        80841                       # Writes before turning the bus around for reads
system.mem_ctrl.wrPerTurnAround::mean       16.006952                       # Writes before turning the bus around for reads
system.mem_ctrl.wrPerTurnAround::gmean      16.006618                       # Writes before turning the bus around for reads
system.mem_ctrl.wrPerTurnAround::stdev       0.107148                       # Writes before turning the bus around for reads
system.mem_ctrl.wrPerTurnAround::16             80464     99.53%     99.53% # Writes before turning the bus around for reads
system.mem_ctrl.wrPerTurnAround::17               192      0.24%     99.77% # Writes before turning the bus around for reads
system.mem_ctrl.wrPerTurnAround::18               185      0.23%    100.00% # Writes before turning the bus around for reads
system.mem_ctrl.wrPerTurnAround::total          80841                       # Writes before turning the bus around for reads
system.mem_ctrl.totQLat                  311141422398                       # Total ticks spent queuing
system.mem_ctrl.totMemAccLat             916060437420                       # Total ticks spent from burst creation until serviced by the DRAM
system.mem_ctrl.totBusLat                134761675832                       # Total ticks spent in databus transfers
system.mem_ctrl.avgQLat                       8662.72                       # Average queueing delay per DRAM burst
system.mem_ctrl.avgBusLat                     3752.00                       # Average bus latency per DRAM burst
system.mem_ctrl.avgMemAccLat                 25504.72                       # Average memory access latency per DRAM burst
system.mem_ctrl.avgRdBW                       2011.69                       # Average DRAM read bandwidth in MiByte/s
system.mem_ctrl.avgWrBW                         72.48                       # Average achieved write bandwidth in MiByte/s
system.mem_ctrl.avgRdBWSys                    1134.25                       # Average system read bandwidth in MiByte/s
system.mem_ctrl.avgWrBWSys                      25.71                       # Average system write bandwidth in MiByte/s
system.mem_ctrl.peakBW                       17057.00                       # Theoretical peak bandwidth in MiByte/s
system.mem_ctrl.busUtil                         12.22                       # Data bus utilization in percentage
system.mem_ctrl.busUtilRead                     11.79                       # Data bus utilization in percentage for reads
system.mem_ctrl.busUtilWrite                     0.42                       # Data bus utilization in percentage for writes
system.mem_ctrl.avgRdQLen                        1.67                       # Average read queue length when enqueuing
system.mem_ctrl.avgWrQLen                       27.91                       # Average write queue length when enqueuing
system.mem_ctrl.readRowHits                  33044681                       # Number of row buffer hits during reads
system.mem_ctrl.writeRowHits                  1157551                       # Number of row buffer hits during writes
system.mem_ctrl.readRowHitRate                  92.00                       # Row buffer hit rate for reads
system.mem_ctrl.writeRowHitRate                 89.45                       # Row buffer hit rate for writes
system.mem_ctrl.avgGap                       21744.86                       # Average gap between requests
system.mem_ctrl.pageHitRate                     91.91                       # Row buffer hit rate, read and write combined
system.mem_ctrl_0.actEnergy              30446781857.855999                       # Energy for activate commands per rank (pJ)
system.mem_ctrl_0.preEnergy              15028203649.535999                       # Energy for precharge commands per rank (pJ)
system.mem_ctrl_0.readEnergy             234346436898.335999                       # Energy for read commands per rank (pJ)
system.mem_ctrl_0.writeEnergy            3524863540.128000                       # Energy for write commands per rank (pJ)
system.mem_ctrl_0.refreshEnergy          94591800963.743988                       # Energy for refresh commands per rank (pJ)
system.mem_ctrl_0.actBackEnergy          348629480344.992004                       # Energy for active background per rank (pJ)
system.mem_ctrl_0.preBackEnergy          2680114348.632000                       # Energy for precharge background per rank (pJ)
system.mem_ctrl_0.actPowerDownEnergy     250344239996.927979                       # Energy for active power-down per rank (pJ)
system.mem_ctrl_0.prePowerDownEnergy     1137527217.792000                       # Energy for precharge power-down per rank (pJ)
system.mem_ctrl_0.selfRefreshEnergy      4136309.856000                       # Energy for self refresh per rank (pJ)
system.mem_ctrl_0.totalEnergy            980733585127.799927                       # Total energy per rank (pJ)
system.mem_ctrl_0.averagePower             858.280093                       # Core power per rank (mW)
system.mem_ctrl_0.totalIdleTime          476349918426                       # Total Idle time Per DRAM Rank
system.mem_ctrl_0.memoryStateTime::IDLE     964931596                       # Time in different power states
system.mem_ctrl_0.memoryStateTime::REF    38153270000                       # Time in different power states
system.mem_ctrl_0.memoryStateTime::SREF      12383640                       # Time in different power states
system.mem_ctrl_0.memoryStateTime::PRE_PDN   2204547010                       # Time in different power states
system.mem_ctrl_0.memoryStateTime::ACT   627204760420                       # Time in different power states
system.mem_ctrl_0.memoryStateTime::ACT_PDN 474133220134                       # Time in different power states
system.mem_ctrl_1.actEnergy              1255697928.576000                       # Energy for activate commands per rank (pJ)
system.mem_ctrl_1.preEnergy              619773617.232000                       # Energy for precharge commands per rank (pJ)
system.mem_ctrl_1.readEnergy             3373152650.784000                       # Energy for read commands per rank (pJ)
system.mem_ctrl_1.writeEnergy            3058727366.688000                       # Energy for write commands per rank (pJ)
system.mem_ctrl_1.refreshEnergy          57736303801.343994                       # Energy for refresh commands per rank (pJ)
system.mem_ctrl_1.actBackEnergy          103194301078.175995                       # Energy for active background per rank (pJ)
system.mem_ctrl_1.preBackEnergy          3476917741.415999                       # Energy for precharge background per rank (pJ)
system.mem_ctrl_1.actPowerDownEnergy     96271763376.095993                       # Energy for active power-down per rank (pJ)
system.mem_ctrl_1.prePowerDownEnergy     97601193800.207993                       # Energy for precharge power-down per rank (pJ)
system.mem_ctrl_1.selfRefreshEnergy      146149923776.639984                       # Energy for self refresh per rank (pJ)
system.mem_ctrl_1.totalEnergy            512741769218.112061                       # Total energy per rank (pJ)
system.mem_ctrl_1.averagePower             448.721300                       # Core power per rank (mW)
system.mem_ctrl_1.totalIdleTime          939390963134                       # Total Idle time Per DRAM Rank
system.mem_ctrl_1.memoryStateTime::IDLE    5498530570                       # Time in different power states
system.mem_ctrl_1.memoryStateTime::REF    23389638000                       # Time in different power states
system.mem_ctrl_1.memoryStateTime::SREF  567908281460                       # Time in different power states
system.mem_ctrl_1.memoryStateTime::PRE_PDN 189149616160                       # Time in different power states
system.mem_ctrl_1.memoryStateTime::ACT   174393981096                       # Time in different power states
system.mem_ctrl_1.memoryStateTime::ACT_PDN 182333065514                       # Time in different power states
system.pwrStateResidencyTicks::UNDEFINED 1142673112800                       # Cumulative time (in ticks) in various power states
system.cpu.branchPred.lookups                      84                       # Number of BP lookups
system.cpu.branchPred.condPredicted                84                       # Number of conditional branches predicted
system.cpu.branchPred.condIncorrect                32                       # Number of conditional branches incorrect
system.cpu.branchPred.BTBLookups                   50                       # Number of BTB lookups
system.cpu.branchPred.BTBHits                       0                       # Number of BTB hits
system.cpu.branchPred.BTBCorrect                    0                       # Number of correct BTB predictions (this stat may not work properly.
system.cpu.branchPred.BTBHitPct              0.000000                       # BTB Hit Percentage
system.cpu.branchPred.usedRAS                       0                       # Number of times the RAS was used to get a target.
system.cpu.branchPred.RASInCorrect                  0                       # Number of incorrect RAS predictions.
system.cpu.branchPred.indirectLookups              50                       # Number of indirect predictor lookups.
system.cpu.branchPred.indirectHits                  0                       # Number of indirect target hits.
system.cpu.branchPred.indirectMisses               50                       # Number of indirect misses.
system.cpu.branchPredindirectMispredicted           17                       # Number of mispredicted indirect branches.
system.cpu.dtb.walker.pwrStateResidencyTicks::UNDEFINED 1142673112800                       # Cumulative time (in ticks) in various power states
system.cpu.dtb.rdAccesses                    26907750                       # TLB accesses on read requests
system.cpu.dtb.wrAccesses                     7334793                       # TLB accesses on write requests
system.cpu.dtb.rdMisses                          2852                       # TLB misses on read requests
system.cpu.dtb.wrMisses                        116850                       # TLB misses on write requests
system.cpu.apic_clk_domain.clock                 6400                       # Clock period in ticks
system.cpu.interrupts.pwrStateResidencyTicks::UNDEFINED 1142673112800                       # Cumulative time (in ticks) in various power states
system.cpu.itb.walker.pwrStateResidencyTicks::UNDEFINED 1142673112800                       # Cumulative time (in ticks) in various power states
system.cpu.itb.rdAccesses                           0                       # TLB accesses on read requests
system.cpu.itb.wrAccesses                    18310896                       # TLB accesses on write requests
system.cpu.itb.rdMisses                             0                       # TLB misses on read requests
system.cpu.itb.wrMisses                            90                       # TLB misses on write requests
system.cpu.workload.numSyscalls                    33                       # Number of system calls
system.cpu.pwrStateResidencyTicks::ON    1142673112800                       # Cumulative time (in ticks) in various power states
system.cpu.numCycles                       2856682782                       # number of cpu cycles simulated
system.cpu.numWorkItemsStarted                      0                       # number of work items this cpu started
system.cpu.numWorkItemsCompleted                    0                       # number of work items this cpu completed
system.cpu.committedInsts                    47700244                       # Number of instructions committed
system.cpu.committedOps                      82046706                       # Number of ops (including micro ops) committed
system.cpu.discardedOps                      18240496                       # Number of ops (including micro ops) which were discarded before commit
system.cpu.numFetchSuspends                         0                       # Number of times Execute suspended instruction fetching
system.cpu.cpi                              59.888222                       # CPI: cycles per instruction
system.cpu.ipc                               0.016698                       # IPC: instructions per cycle
system.cpu.op_class_0::No_OpClass                1287      0.00%      0.00% # Class of committed instruction
system.cpu.op_class_0::IntAlu                50852257     61.98%     61.98% # Class of committed instruction
system.cpu.op_class_0::IntMult                   1192      0.00%     61.98% # Class of committed instruction
system.cpu.op_class_0::IntDiv                    1131      0.00%     61.98% # Class of committed instruction
system.cpu.op_class_0::FloatAdd                  2227      0.00%     61.99% # Class of committed instruction
system.cpu.op_class_0::FloatCmp                     0      0.00%     61.99% # Class of committed instruction
system.cpu.op_class_0::FloatCvt                     0      0.00%     61.99% # Class of committed instruction
system.cpu.op_class_0::FloatMult                    0      0.00%     61.99% # Class of committed instruction
system.cpu.op_class_0::FloatMultAcc                 0      0.00%     61.99% # Class of committed instruction
system.cpu.op_class_0::FloatDiv                     0      0.00%     61.99% # Class of committed instruction
system.cpu.op_class_0::FloatMisc                    0      0.00%     61.99% # Class of committed instruction
system.cpu.op_class_0::FloatSqrt                    0      0.00%     61.99% # Class of committed instruction
system.cpu.op_class_0::SimdAdd                      0      0.00%     61.99% # Class of committed instruction
system.cpu.op_class_0::SimdAddAcc                   0      0.00%     61.99% # Class of committed instruction
system.cpu.op_class_0::SimdAlu                      0      0.00%     61.99% # Class of committed instruction
system.cpu.op_class_0::SimdCmp                      0      0.00%     61.99% # Class of committed instruction
system.cpu.op_class_0::SimdCvt                      0      0.00%     61.99% # Class of committed instruction
system.cpu.op_class_0::SimdMisc                     0      0.00%     61.99% # Class of committed instruction
system.cpu.op_class_0::SimdMult                     0      0.00%     61.99% # Class of committed instruction
system.cpu.op_class_0::SimdMultAcc                  0      0.00%     61.99% # Class of committed instruction
system.cpu.op_class_0::SimdShift                    0      0.00%     61.99% # Class of committed instruction
system.cpu.op_class_0::SimdShiftAcc                 0      0.00%     61.99% # Class of committed instruction
system.cpu.op_class_0::SimdSqrt                     0      0.00%     61.99% # Class of committed instruction
system.cpu.op_class_0::SimdFloatAdd                 0      0.00%     61.99% # Class of committed instruction
system.cpu.op_class_0::SimdFloatAlu                 0      0.00%     61.99% # Class of committed instruction
system.cpu.op_class_0::SimdFloatCmp                 0      0.00%     61.99% # Class of committed instruction
system.cpu.op_class_0::SimdFloatCvt                 0      0.00%     61.99% # Class of committed instruction
system.cpu.op_class_0::SimdFloatDiv                 0      0.00%     61.99% # Class of committed instruction
system.cpu.op_class_0::SimdFloatMisc                0      0.00%     61.99% # Class of committed instruction
system.cpu.op_class_0::SimdFloatMult                0      0.00%     61.99% # Class of committed instruction
system.cpu.op_class_0::SimdFloatMultAcc             0      0.00%     61.99% # Class of committed instruction
system.cpu.op_class_0::SimdFloatSqrt                0      0.00%     61.99% # Class of committed instruction
system.cpu.op_class_0::MemRead               23853209     29.07%     91.06% # Class of committed instruction
system.cpu.op_class_0::MemWrite               7334237      8.94%    100.00% # Class of committed instruction
system.cpu.op_class_0::FloatMemRead               782      0.00%    100.00% # Class of committed instruction
system.cpu.op_class_0::FloatMemWrite              384      0.00%    100.00% # Class of committed instruction
system.cpu.op_class_0::IprAccess                    0      0.00%    100.00% # Class of committed instruction
system.cpu.op_class_0::InstPrefetch                 0      0.00%    100.00% # Class of committed instruction
system.cpu.op_class_0::total                 82046706                       # Class of committed instruction
system.cpu.tickCycles                       256293751                       # Number of cycles that the object actually ticked
system.cpu.idleCycles                      2600389031                       # Total number of cycles that the object has spent stopped
system.membus.snoop_filter.tot_requests             0                       # Total number of requests made to the snoop filter.
system.membus.snoop_filter.hit_single_requests            0                       # Number of requests hitting in the snoop filter with a single holder of the requested data.
system.membus.snoop_filter.hit_multi_requests            0                       # Number of requests hitting in the snoop filter with multiple (>1) holders of the requested data.
system.membus.snoop_filter.tot_snoops               0                       # Total number of snoops made to the snoop filter.
system.membus.snoop_filter.hit_single_snoops            0                       # Number of snoops hitting in the snoop filter with a single holder of the requested data.
system.membus.snoop_filter.hit_multi_snoops            0                       # Number of snoops hitting in the snoop filter with multiple (>1) holders of the requested data.
system.membus.pwrStateResidencyTicks::UNDEFINED 1142673112800                       # Cumulative time (in ticks) in various power states
system.membus.trans_dist::ReadReq            45214489                       # Transaction distribution
system.membus.trans_dist::ReadResp           45214488                       # Transaction distribution
system.membus.trans_dist::WriteReq            7334621                       # Transaction distribution
system.membus.trans_dist::WriteResp           7334621                       # Transaction distribution
system.membus.pkt_count_system.cpu.fetch1.icache_port::system.mem_ctrl.port     36621791                       # Packet count per connected master and slave (bytes)
system.membus.pkt_count_system.cpu.fetch1.icache_port::total     36621791                       # Packet count per connected master and slave (bytes)
system.membus.pkt_count_system.cpu.execute.dcache_port::system.mem_ctrl.port     68476428                       # Packet count per connected master and slave (bytes)
system.membus.pkt_count_system.cpu.execute.dcache_port::total     68476428                       # Packet count per connected master and slave (bytes)
system.membus.pkt_count::total              105098219                       # Packet count per connected master and slave (bytes)
system.membus.pkt_size_system.cpu.fetch1.icache_port::system.mem_ctrl.port   1171897280                       # Cumulative packet size per connected master and slave (bytes)
system.membus.pkt_size_system.cpu.fetch1.icache_port::total   1171897280                       # Cumulative packet size per connected master and slave (bytes)
system.membus.pkt_size_system.cpu.execute.dcache_port::system.mem_ctrl.port    153560593                       # Cumulative packet size per connected master and slave (bytes)
system.membus.pkt_size_system.cpu.execute.dcache_port::total    153560593                       # Cumulative packet size per connected master and slave (bytes)
system.membus.pkt_size::total              1325457873                       # Cumulative packet size per connected master and slave (bytes)
system.membus.snoops                                0                       # Total snoops (count)
system.membus.snoopTraffic                          0                       # Total snoop traffic (bytes)
system.membus.snoop_fanout::samples          52549110                       # Request fanout histogram
system.membus.snoop_fanout::mean                    0                       # Request fanout histogram
system.membus.snoop_fanout::stdev                   0                       # Request fanout histogram
system.membus.snoop_fanout::underflows              0      0.00%      0.00% # Request fanout histogram
system.membus.snoop_fanout::0                52549110    100.00%    100.00% # Request fanout histogram
system.membus.snoop_fanout::1                       0      0.00%    100.00% # Request fanout histogram
system.membus.snoop_fanout::overflows               0      0.00%    100.00% # Request fanout histogram
system.membus.snoop_fanout::min_value               0                       # Request fanout histogram
system.membus.snoop_fanout::max_value               0                       # Request fanout histogram
system.membus.snoop_fanout::total            52549110                       # Request fanout histogram
system.membus.reqLayer2.occupancy         23953492400                       # Layer occupancy (ticks)
system.membus.reqLayer2.utilization               2.1                       # Layer utilization (%)
system.membus.respLayer0.occupancy        42429935760                       # Layer occupancy (ticks)
system.membus.respLayer0.utilization              3.7                       # Layer utilization (%)
system.membus.respLayer1.occupancy        29982126531                       # Layer occupancy (ticks)
system.membus.respLayer1.utilization              2.6                       # Layer utilization (%)

---------- End Simulation Statistics   ----------
