
---------- Begin Simulation Statistics ----------
sim_seconds                                  1.113728                       # Number of seconds simulated
sim_ticks                                1113728151672                       # Number of ticks simulated
final_tick                               1113728151672                       # Number of ticks from beginning of simulation (restored from checkpoints and never reset)
sim_freq                                 1000000000000                       # Frequency of simulated ticks
host_inst_rate                                 114102                       # Simulator instruction rate (inst/s)
host_op_rate                                   196261                       # Simulator op (including micro ops) rate (op/s)
host_tick_rate                             2664112273                       # Simulator tick rate (ticks/s)
host_mem_usage                                 668416                       # Number of bytes of host memory used
host_seconds                                   418.05                       # Real time elapsed on the host
sim_insts                                    47700244                       # Number of instructions simulated
sim_ops                                      82046706                       # Number of ops (including micro ops) simulated
system.clk_domain.voltage_domain.voltage            1                       # Voltage in Volts
system.clk_domain.clock                           333                       # Clock period in ticks
system.mem_ctrl.pwrStateResidencyTicks::UNDEFINED 1113728151672                       # Cumulative time (in ticks) in various power states
system.mem_ctrl.bytes_read::cpu.inst       1171897920                       # Number of bytes read from this memory
system.mem_ctrl.bytes_read::cpu.data        124182744                       # Number of bytes read from this memory
system.mem_ctrl.bytes_read::total          1296080664                       # Number of bytes read from this memory
system.mem_ctrl.bytes_inst_read::cpu.inst   1171897920                       # Number of instructions bytes read from this memory
system.mem_ctrl.bytes_inst_read::total     1171897920                       # Number of instructions bytes read from this memory
system.mem_ctrl.bytes_written::cpu.data      29377849                       # Number of bytes written to this memory
system.mem_ctrl.bytes_written::total         29377849                       # Number of bytes written to this memory
system.mem_ctrl.num_reads::cpu.inst          18310905                       # Number of read requests responded to by this memory
system.mem_ctrl.num_reads::cpu.data          26903593                       # Number of read requests responded to by this memory
system.mem_ctrl.num_reads::total             45214498                       # Number of read requests responded to by this memory
system.mem_ctrl.num_writes::cpu.data          7334621                       # Number of write requests responded to by this memory
system.mem_ctrl.num_writes::total             7334621                       # Number of write requests responded to by this memory
system.mem_ctrl.bw_read::cpu.inst          1052229773                       # Total read bandwidth from this memory (bytes/s)
system.mem_ctrl.bw_read::cpu.data           111501845                       # Total read bandwidth from this memory (bytes/s)
system.mem_ctrl.bw_read::total             1163731618                       # Total read bandwidth from this memory (bytes/s)
system.mem_ctrl.bw_inst_read::cpu.inst     1052229773                       # Instruction read bandwidth from this memory (bytes/s)
system.mem_ctrl.bw_inst_read::total        1052229773                       # Instruction read bandwidth from this memory (bytes/s)
system.mem_ctrl.bw_write::cpu.data           26377935                       # Write bandwidth from this memory (bytes/s)
system.mem_ctrl.bw_write::total              26377935                       # Write bandwidth from this memory (bytes/s)
system.mem_ctrl.bw_total::cpu.inst         1052229773                       # Total bandwidth to/from this memory (bytes/s)
system.mem_ctrl.bw_total::cpu.data          137879780                       # Total bandwidth to/from this memory (bytes/s)
system.mem_ctrl.bw_total::total            1190109553                       # Total bandwidth to/from this memory (bytes/s)
system.mem_ctrl.readReqs                     45214499                       # Number of read requests accepted
system.mem_ctrl.writeReqs                     7334621                       # Number of write requests accepted
system.mem_ctrl.readBursts                   45214499                       # Number of DRAM read bursts, including those serviced by the write queue
system.mem_ctrl.writeBursts                   7334621                       # Number of DRAM write bursts, including those merged in the write queue
system.mem_ctrl.bytesReadDRAM              2298738496                       # Total number of bytes read from DRAM
system.mem_ctrl.bytesReadWrQ                594989440                       # Total number of bytes read from write queue
system.mem_ctrl.bytesWritten                 82882304                       # Total number of bytes written to DRAM
system.mem_ctrl.bytesReadSys               1296080728                       # Total read bytes from the system interface side
system.mem_ctrl.bytesWrittenSys              29377849                       # Total written bytes from the system interface side
system.mem_ctrl.servicedByWrQ                 9296710                       # Number of DRAM read bursts serviced by the write queue
system.mem_ctrl.mergedWrBursts                6039556                       # Number of DRAM write bursts merged with an existing one
system.mem_ctrl.neitherReadNorWriteReqs             0                       # Number of requests that are neither read nor write
system.mem_ctrl.perBankRdBursts::0           18324839                       # Per bank write bursts
system.mem_ctrl.perBankRdBursts::1            4188871                       # Per bank write bursts
system.mem_ctrl.perBankRdBursts::2              65234                       # Per bank write bursts
system.mem_ctrl.perBankRdBursts::3              64528                       # Per bank write bursts
system.mem_ctrl.perBankRdBursts::4              66681                       # Per bank write bursts
system.mem_ctrl.perBankRdBursts::5              93975                       # Per bank write bursts
system.mem_ctrl.perBankRdBursts::6           12526281                       # Per bank write bursts
system.mem_ctrl.perBankRdBursts::7              77743                       # Per bank write bursts
system.mem_ctrl.perBankRdBursts::8              63547                       # Per bank write bursts
system.mem_ctrl.perBankRdBursts::9              63418                       # Per bank write bursts
system.mem_ctrl.perBankRdBursts::10             64574                       # Per bank write bursts
system.mem_ctrl.perBankRdBursts::11             64007                       # Per bank write bursts
system.mem_ctrl.perBankRdBursts::12             61842                       # Per bank write bursts
system.mem_ctrl.perBankRdBursts::13             62435                       # Per bank write bursts
system.mem_ctrl.perBankRdBursts::14             62798                       # Per bank write bursts
system.mem_ctrl.perBankRdBursts::15             67016                       # Per bank write bursts
system.mem_ctrl.perBankWrBursts::0              77562                       # Per bank write bursts
system.mem_ctrl.perBankWrBursts::1              78184                       # Per bank write bursts
system.mem_ctrl.perBankWrBursts::2              78196                       # Per bank write bursts
system.mem_ctrl.perBankWrBursts::3              77891                       # Per bank write bursts
system.mem_ctrl.perBankWrBursts::4              78028                       # Per bank write bursts
system.mem_ctrl.perBankWrBursts::5              78182                       # Per bank write bursts
system.mem_ctrl.perBankWrBursts::6             149144                       # Per bank write bursts
system.mem_ctrl.perBankWrBursts::7              76669                       # Per bank write bursts
system.mem_ctrl.perBankWrBursts::8              74793                       # Per bank write bursts
system.mem_ctrl.perBankWrBursts::9              74951                       # Per bank write bursts
system.mem_ctrl.perBankWrBursts::10             74982                       # Per bank write bursts
system.mem_ctrl.perBankWrBursts::11             75016                       # Per bank write bursts
system.mem_ctrl.perBankWrBursts::12             74930                       # Per bank write bursts
system.mem_ctrl.perBankWrBursts::13             75016                       # Per bank write bursts
system.mem_ctrl.perBankWrBursts::14             75137                       # Per bank write bursts
system.mem_ctrl.perBankWrBursts::15             76355                       # Per bank write bursts
system.mem_ctrl.numRdRetry                          0                       # Number of times read queue was full causing retry
system.mem_ctrl.numWrRetry                          0                       # Number of times write queue was full causing retry
system.mem_ctrl.totGap                   1113728149341                       # Total gap between requests
system.mem_ctrl.readPktSize::0                   7598                       # Read request sizes (log2)
system.mem_ctrl.readPktSize::1                   2618                       # Read request sizes (log2)
system.mem_ctrl.readPktSize::2               22744273                       # Read request sizes (log2)
system.mem_ctrl.readPktSize::3                4149104                       # Read request sizes (log2)
system.mem_ctrl.readPktSize::4                      0                       # Read request sizes (log2)
system.mem_ctrl.readPktSize::5                      0                       # Read request sizes (log2)
system.mem_ctrl.readPktSize::6               18310906                       # Read request sizes (log2)
system.mem_ctrl.writePktSize::0                   109                       # Write request sizes (log2)
system.mem_ctrl.writePktSize::1                    20                       # Write request sizes (log2)
system.mem_ctrl.writePktSize::2               7324559                       # Write request sizes (log2)
system.mem_ctrl.writePktSize::3                  9933                       # Write request sizes (log2)
system.mem_ctrl.writePktSize::4                     0                       # Write request sizes (log2)
system.mem_ctrl.writePktSize::5                     0                       # Write request sizes (log2)
system.mem_ctrl.writePktSize::6                     0                       # Write request sizes (log2)
system.mem_ctrl.rdQLenPdf::0                 20605192                       # What read queue length does an incoming req see
system.mem_ctrl.rdQLenPdf::1                 15307869                       # What read queue length does an incoming req see
system.mem_ctrl.rdQLenPdf::2                     4728                       # What read queue length does an incoming req see
system.mem_ctrl.rdQLenPdf::3                        0                       # What read queue length does an incoming req see
system.mem_ctrl.rdQLenPdf::4                        0                       # What read queue length does an incoming req see
system.mem_ctrl.rdQLenPdf::5                        0                       # What read queue length does an incoming req see
system.mem_ctrl.rdQLenPdf::6                        0                       # What read queue length does an incoming req see
system.mem_ctrl.rdQLenPdf::7                        0                       # What read queue length does an incoming req see
system.mem_ctrl.rdQLenPdf::8                        0                       # What read queue length does an incoming req see
system.mem_ctrl.rdQLenPdf::9                        0                       # What read queue length does an incoming req see
system.mem_ctrl.rdQLenPdf::10                       0                       # What read queue length does an incoming req see
system.mem_ctrl.rdQLenPdf::11                       0                       # What read queue length does an incoming req see
system.mem_ctrl.rdQLenPdf::12                       0                       # What read queue length does an incoming req see
system.mem_ctrl.rdQLenPdf::13                       0                       # What read queue length does an incoming req see
system.mem_ctrl.rdQLenPdf::14                       0                       # What read queue length does an incoming req see
system.mem_ctrl.rdQLenPdf::15                       0                       # What read queue length does an incoming req see
system.mem_ctrl.rdQLenPdf::16                       0                       # What read queue length does an incoming req see
system.mem_ctrl.rdQLenPdf::17                       0                       # What read queue length does an incoming req see
system.mem_ctrl.rdQLenPdf::18                       0                       # What read queue length does an incoming req see
system.mem_ctrl.rdQLenPdf::19                       0                       # What read queue length does an incoming req see
system.mem_ctrl.rdQLenPdf::20                       0                       # What read queue length does an incoming req see
system.mem_ctrl.rdQLenPdf::21                       0                       # What read queue length does an incoming req see
system.mem_ctrl.rdQLenPdf::22                       0                       # What read queue length does an incoming req see
system.mem_ctrl.rdQLenPdf::23                       0                       # What read queue length does an incoming req see
system.mem_ctrl.rdQLenPdf::24                       0                       # What read queue length does an incoming req see
system.mem_ctrl.rdQLenPdf::25                       0                       # What read queue length does an incoming req see
system.mem_ctrl.rdQLenPdf::26                       0                       # What read queue length does an incoming req see
system.mem_ctrl.rdQLenPdf::27                       0                       # What read queue length does an incoming req see
system.mem_ctrl.rdQLenPdf::28                       0                       # What read queue length does an incoming req see
system.mem_ctrl.rdQLenPdf::29                       0                       # What read queue length does an incoming req see
system.mem_ctrl.rdQLenPdf::30                       0                       # What read queue length does an incoming req see
system.mem_ctrl.rdQLenPdf::31                       0                       # What read queue length does an incoming req see
system.mem_ctrl.wrQLenPdf::0                        1                       # What write queue length does an incoming req see
system.mem_ctrl.wrQLenPdf::1                        1                       # What write queue length does an incoming req see
system.mem_ctrl.wrQLenPdf::2                        1                       # What write queue length does an incoming req see
system.mem_ctrl.wrQLenPdf::3                        1                       # What write queue length does an incoming req see
system.mem_ctrl.wrQLenPdf::4                        1                       # What write queue length does an incoming req see
system.mem_ctrl.wrQLenPdf::5                        1                       # What write queue length does an incoming req see
system.mem_ctrl.wrQLenPdf::6                        1                       # What write queue length does an incoming req see
system.mem_ctrl.wrQLenPdf::7                        1                       # What write queue length does an incoming req see
system.mem_ctrl.wrQLenPdf::8                        1                       # What write queue length does an incoming req see
system.mem_ctrl.wrQLenPdf::9                        1                       # What write queue length does an incoming req see
system.mem_ctrl.wrQLenPdf::10                       1                       # What write queue length does an incoming req see
system.mem_ctrl.wrQLenPdf::11                       1                       # What write queue length does an incoming req see
system.mem_ctrl.wrQLenPdf::12                       1                       # What write queue length does an incoming req see
system.mem_ctrl.wrQLenPdf::13                       1                       # What write queue length does an incoming req see
system.mem_ctrl.wrQLenPdf::14                       1                       # What write queue length does an incoming req see
system.mem_ctrl.wrQLenPdf::15                     109                       # What write queue length does an incoming req see
system.mem_ctrl.wrQLenPdf::16                     224                       # What write queue length does an incoming req see
system.mem_ctrl.wrQLenPdf::17                   80912                       # What write queue length does an incoming req see
system.mem_ctrl.wrQLenPdf::18                   80921                       # What write queue length does an incoming req see
system.mem_ctrl.wrQLenPdf::19                   80920                       # What write queue length does an incoming req see
system.mem_ctrl.wrQLenPdf::20                   80920                       # What write queue length does an incoming req see
system.mem_ctrl.wrQLenPdf::21                   80921                       # What write queue length does an incoming req see
system.mem_ctrl.wrQLenPdf::22                   80920                       # What write queue length does an incoming req see
system.mem_ctrl.wrQLenPdf::23                   80921                       # What write queue length does an incoming req see
system.mem_ctrl.wrQLenPdf::24                   80921                       # What write queue length does an incoming req see
system.mem_ctrl.wrQLenPdf::25                   80920                       # What write queue length does an incoming req see
system.mem_ctrl.wrQLenPdf::26                   80921                       # What write queue length does an incoming req see
system.mem_ctrl.wrQLenPdf::27                   80921                       # What write queue length does an incoming req see
system.mem_ctrl.wrQLenPdf::28                   80922                       # What write queue length does an incoming req see
system.mem_ctrl.wrQLenPdf::29                   80920                       # What write queue length does an incoming req see
system.mem_ctrl.wrQLenPdf::30                   80919                       # What write queue length does an incoming req see
system.mem_ctrl.wrQLenPdf::31                   80919                       # What write queue length does an incoming req see
system.mem_ctrl.wrQLenPdf::32                   80919                       # What write queue length does an incoming req see
system.mem_ctrl.wrQLenPdf::33                       0                       # What write queue length does an incoming req see
system.mem_ctrl.wrQLenPdf::34                       0                       # What write queue length does an incoming req see
system.mem_ctrl.wrQLenPdf::35                       0                       # What write queue length does an incoming req see
system.mem_ctrl.wrQLenPdf::36                       0                       # What write queue length does an incoming req see
system.mem_ctrl.wrQLenPdf::37                       0                       # What write queue length does an incoming req see
system.mem_ctrl.wrQLenPdf::38                       0                       # What write queue length does an incoming req see
system.mem_ctrl.wrQLenPdf::39                       0                       # What write queue length does an incoming req see
system.mem_ctrl.wrQLenPdf::40                       0                       # What write queue length does an incoming req see
system.mem_ctrl.wrQLenPdf::41                       0                       # What write queue length does an incoming req see
system.mem_ctrl.wrQLenPdf::42                       0                       # What write queue length does an incoming req see
system.mem_ctrl.wrQLenPdf::43                       0                       # What write queue length does an incoming req see
system.mem_ctrl.wrQLenPdf::44                       0                       # What write queue length does an incoming req see
system.mem_ctrl.wrQLenPdf::45                       0                       # What write queue length does an incoming req see
system.mem_ctrl.wrQLenPdf::46                       0                       # What write queue length does an incoming req see
system.mem_ctrl.wrQLenPdf::47                       0                       # What write queue length does an incoming req see
system.mem_ctrl.wrQLenPdf::48                       0                       # What write queue length does an incoming req see
system.mem_ctrl.wrQLenPdf::49                       0                       # What write queue length does an incoming req see
system.mem_ctrl.wrQLenPdf::50                       0                       # What write queue length does an incoming req see
system.mem_ctrl.wrQLenPdf::51                       0                       # What write queue length does an incoming req see
system.mem_ctrl.wrQLenPdf::52                       0                       # What write queue length does an incoming req see
system.mem_ctrl.wrQLenPdf::53                       0                       # What write queue length does an incoming req see
system.mem_ctrl.wrQLenPdf::54                       0                       # What write queue length does an incoming req see
system.mem_ctrl.wrQLenPdf::55                       0                       # What write queue length does an incoming req see
system.mem_ctrl.wrQLenPdf::56                       0                       # What write queue length does an incoming req see
system.mem_ctrl.wrQLenPdf::57                       0                       # What write queue length does an incoming req see
system.mem_ctrl.wrQLenPdf::58                       0                       # What write queue length does an incoming req see
system.mem_ctrl.wrQLenPdf::59                       0                       # What write queue length does an incoming req see
system.mem_ctrl.wrQLenPdf::60                       0                       # What write queue length does an incoming req see
system.mem_ctrl.wrQLenPdf::61                       0                       # What write queue length does an incoming req see
system.mem_ctrl.wrQLenPdf::62                       0                       # What write queue length does an incoming req see
system.mem_ctrl.wrQLenPdf::63                       0                       # What write queue length does an incoming req see
system.mem_ctrl.bytesPerActivate::samples      2993832                       # Bytes accessed per row activation
system.mem_ctrl.bytesPerActivate::mean     795.508162                       # Bytes accessed per row activation
system.mem_ctrl.bytesPerActivate::gmean    614.005782                       # Bytes accessed per row activation
system.mem_ctrl.bytesPerActivate::stdev    362.795520                       # Bytes accessed per row activation
system.mem_ctrl.bytesPerActivate::0-127        312209     10.43%     10.43% # Bytes accessed per row activation
system.mem_ctrl.bytesPerActivate::128-255       166145      5.55%     15.98% # Bytes accessed per row activation
system.mem_ctrl.bytesPerActivate::256-383       131386      4.39%     20.37% # Bytes accessed per row activation
system.mem_ctrl.bytesPerActivate::384-511       127675      4.26%     24.63% # Bytes accessed per row activation
system.mem_ctrl.bytesPerActivate::512-639        73373      2.45%     27.08% # Bytes accessed per row activation
system.mem_ctrl.bytesPerActivate::640-767        48713      1.63%     28.71% # Bytes accessed per row activation
system.mem_ctrl.bytesPerActivate::768-895        44372      1.48%     30.19% # Bytes accessed per row activation
system.mem_ctrl.bytesPerActivate::896-1023       104304      3.48%     33.68% # Bytes accessed per row activation
system.mem_ctrl.bytesPerActivate::1024-1151      1985655     66.32%    100.00% # Bytes accessed per row activation
system.mem_ctrl.bytesPerActivate::total       2993832                       # Bytes accessed per row activation
system.mem_ctrl.rdPerTurnAround::samples        80919                       # Reads before turning the bus around for writes
system.mem_ctrl.rdPerTurnAround::mean      443.866150                       # Reads before turning the bus around for writes
system.mem_ctrl.rdPerTurnAround::gmean     190.966692                       # Reads before turning the bus around for writes
system.mem_ctrl.rdPerTurnAround::stdev   48388.447001                       # Reads before turning the bus around for writes
system.mem_ctrl.rdPerTurnAround::0-524287        80918    100.00%    100.00% # Reads before turning the bus around for writes
system.mem_ctrl.rdPerTurnAround::1.36315e+07-1.41558e+07            1      0.00%    100.00% # Reads before turning the bus around for writes
system.mem_ctrl.rdPerTurnAround::total          80919                       # Reads before turning the bus around for writes
system.mem_ctrl.wrPerTurnAround::samples        80919                       # Writes before turning the bus around for reads
system.mem_ctrl.wrPerTurnAround::mean       16.004103                       # Writes before turning the bus around for reads
system.mem_ctrl.wrPerTurnAround::gmean      16.003906                       # Writes before turning the bus around for reads
system.mem_ctrl.wrPerTurnAround::stdev       0.082192                       # Writes before turning the bus around for reads
system.mem_ctrl.wrPerTurnAround::16             80695     99.72%     99.72% # Writes before turning the bus around for reads
system.mem_ctrl.wrPerTurnAround::17               116      0.14%     99.87% # Writes before turning the bus around for reads
system.mem_ctrl.wrPerTurnAround::18               108      0.13%    100.00% # Writes before turning the bus around for reads
system.mem_ctrl.wrPerTurnAround::total          80919                       # Writes before turning the bus around for reads
system.mem_ctrl.totQLat                  308161706055                       # Total ticks spent queuing
system.mem_ctrl.totMemAccLat             913089108393                       # Total ticks spent from burst creation until serviced by the DRAM
system.mem_ctrl.totBusLat                134763544328                       # Total ticks spent in databus transfers
system.mem_ctrl.avgQLat                       8579.64                       # Average queueing delay per DRAM burst
system.mem_ctrl.avgBusLat                     3752.00                       # Average bus latency per DRAM burst
system.mem_ctrl.avgMemAccLat                 25421.64                       # Average memory access latency per DRAM burst
system.mem_ctrl.avgRdBW                       2064.00                       # Average DRAM read bandwidth in MiByte/s
system.mem_ctrl.avgWrBW                         74.42                       # Average achieved write bandwidth in MiByte/s
system.mem_ctrl.avgRdBWSys                    1163.73                       # Average system read bandwidth in MiByte/s
system.mem_ctrl.avgWrBWSys                      26.38                       # Average system write bandwidth in MiByte/s
system.mem_ctrl.peakBW                       17057.00                       # Theoretical peak bandwidth in MiByte/s
system.mem_ctrl.busUtil                         12.54                       # Data bus utilization in percentage
system.mem_ctrl.busUtilRead                     12.10                       # Data bus utilization in percentage for reads
system.mem_ctrl.busUtilWrite                     0.44                       # Data bus utilization in percentage for writes
system.mem_ctrl.avgRdQLen                        1.67                       # Average read queue length when enqueuing
system.mem_ctrl.avgWrQLen                       23.74                       # Average write queue length when enqueuing
system.mem_ctrl.readRowHits                  33060864                       # Number of row buffer hits during reads
system.mem_ctrl.writeRowHits                  1158121                       # Number of row buffer hits during writes
system.mem_ctrl.readRowHitRate                  92.05                       # Row buffer hit rate for reads
system.mem_ctrl.writeRowHitRate                 89.43                       # Row buffer hit rate for writes
system.mem_ctrl.avgGap                       21194.04                       # Average gap between requests
system.mem_ctrl.pageHitRate                     91.95                       # Row buffer hit rate, read and write combined
system.mem_ctrl_0.actEnergy              30304424614.463997                       # Energy for activate commands per rank (pJ)
system.mem_ctrl_0.preEnergy              14957937574.271999                       # Energy for precharge commands per rank (pJ)
system.mem_ctrl_0.readEnergy             234349845440.255981                       # Energy for read commands per rank (pJ)
system.mem_ctrl_0.writeEnergy            3530139497.472000                       # Energy for write commands per rank (pJ)
system.mem_ctrl_0.refreshEnergy          92195790767.807999                       # Energy for refresh commands per rank (pJ)
system.mem_ctrl_0.actBackEnergy          345123157327.871948                       # Energy for active background per rank (pJ)
system.mem_ctrl_0.preBackEnergy          2618493984.456000                       # Energy for precharge background per rank (pJ)
system.mem_ctrl_0.actPowerDownEnergy     238716112854.911987                       # Energy for active power-down per rank (pJ)
system.mem_ctrl_0.prePowerDownEnergy     1067184883.128000                       # Energy for precharge power-down per rank (pJ)
system.mem_ctrl_0.selfRefreshEnergy      2666951.616000                       # Energy for self refresh per rank (pJ)
system.mem_ctrl_0.totalEnergy            962865753896.255859                       # Total energy per rank (pJ)
system.mem_ctrl_0.averagePower             864.542889                       # Core power per rank (mW)
system.mem_ctrl_0.totalIdleTime          454188543250                       # Total Idle time Per DRAM Rank
system.mem_ctrl_0.memoryStateTime::IDLE     929457806                       # Time in different power states
system.mem_ctrl_0.memoryStateTime::REF    37187360000                       # Time in different power states
system.mem_ctrl_0.memoryStateTime::SREF       6261893                       # Time in different power states
system.mem_ctrl_0.memoryStateTime::PRE_PDN   2068225884                       # Time in different power states
system.mem_ctrl_0.memoryStateTime::ACT   621422563708                       # Time in different power states
system.mem_ctrl_0.memoryStateTime::ACT_PDN 452114282381                       # Time in different power states
system.mem_ctrl_1.actEnergy              1237523990.976000                       # Energy for activate commands per rank (pJ)
system.mem_ctrl_1.preEnergy              610803148.032000                       # Energy for precharge commands per rank (pJ)
system.mem_ctrl_1.readEnergy             3373040135.808000                       # Energy for read commands per rank (pJ)
system.mem_ctrl_1.writeEnergy            3058630700.160000                       # Energy for write commands per rank (pJ)
system.mem_ctrl_1.refreshEnergy          56710731506.016006                       # Energy for refresh commands per rank (pJ)
system.mem_ctrl_1.actBackEnergy          104165567270.687988                       # Energy for active background per rank (pJ)
system.mem_ctrl_1.preBackEnergy          3495866384.472000                       # Energy for precharge background per rank (pJ)
system.mem_ctrl_1.actPowerDownEnergy     92653653331.007996                       # Energy for active power-down per rank (pJ)
system.mem_ctrl_1.prePowerDownEnergy     94692365737.199997                       # Energy for precharge power-down per rank (pJ)
system.mem_ctrl_1.selfRefreshEnergy      141605882069.567993                       # Energy for self refresh per rank (pJ)
system.mem_ctrl_1.totalEnergy            501607511671.559998                       # Total energy per rank (pJ)
system.mem_ctrl_1.averagePower             450.385949                       # Core power per rank (mW)
system.mem_ctrl_1.totalIdleTime          908564692989                       # Total Idle time Per DRAM Rank
system.mem_ctrl_1.memoryStateTime::IDLE    5588261437                       # Time in different power states
system.mem_ctrl_1.memoryStateTime::REF    22974358000                       # Time in different power states
system.mem_ctrl_1.memoryStateTime::SREF  549571990181                       # Time in different power states
system.mem_ctrl_1.memoryStateTime::PRE_PDN 183512596016                       # Time in different power states
system.mem_ctrl_1.memoryStateTime::ACT   176600839246                       # Time in different power states
system.mem_ctrl_1.memoryStateTime::ACT_PDN 175480106792                       # Time in different power states
system.pwrStateResidencyTicks::UNDEFINED 1113728151672                       # Cumulative time (in ticks) in various power states
system.cpu.branchPred.lookups                      82                       # Number of BP lookups
system.cpu.branchPred.condPredicted                82                       # Number of conditional branches predicted
system.cpu.branchPred.condIncorrect                32                       # Number of conditional branches incorrect
system.cpu.branchPred.BTBLookups                   48                       # Number of BTB lookups
system.cpu.branchPred.BTBHits                       0                       # Number of BTB hits
system.cpu.branchPred.BTBCorrect                    0                       # Number of correct BTB predictions (this stat may not work properly.
system.cpu.branchPred.BTBHitPct              0.000000                       # BTB Hit Percentage
system.cpu.branchPred.usedRAS                       0                       # Number of times the RAS was used to get a target.
system.cpu.branchPred.RASInCorrect                  0                       # Number of incorrect RAS predictions.
system.cpu.branchPred.indirectLookups              48                       # Number of indirect predictor lookups.
system.cpu.branchPred.indirectHits                  0                       # Number of indirect target hits.
system.cpu.branchPred.indirectMisses               48                       # Number of indirect misses.
system.cpu.branchPredindirectMispredicted           17                       # Number of mispredicted indirect branches.
system.cpu.dtb.walker.pwrStateResidencyTicks::UNDEFINED 1113728151672                       # Cumulative time (in ticks) in various power states
system.cpu.dtb.rdAccesses                    26907750                       # TLB accesses on read requests
system.cpu.dtb.wrAccesses                     7334793                       # TLB accesses on write requests
system.cpu.dtb.rdMisses                          2852                       # TLB misses on read requests
system.cpu.dtb.wrMisses                        116850                       # TLB misses on write requests
system.cpu.apic_clk_domain.clock                 5328                       # Clock period in ticks
system.cpu.interrupts.pwrStateResidencyTicks::UNDEFINED 1113728151672                       # Cumulative time (in ticks) in various power states
system.cpu.itb.walker.pwrStateResidencyTicks::UNDEFINED 1113728151672                       # Cumulative time (in ticks) in various power states
system.cpu.itb.rdAccesses                           0                       # TLB accesses on read requests
system.cpu.itb.wrAccesses                    18310906                       # TLB accesses on write requests
system.cpu.itb.rdMisses                             0                       # TLB misses on read requests
system.cpu.itb.wrMisses                            90                       # TLB misses on write requests
system.cpu.workload.numSyscalls                    33                       # Number of system calls
system.cpu.pwrStateResidencyTicks::ON    1113728151672                       # Cumulative time (in ticks) in various power states
system.cpu.numCycles                       3344528984                       # number of cpu cycles simulated
system.cpu.numWorkItemsStarted                      0                       # number of work items this cpu started
system.cpu.numWorkItemsCompleted                    0                       # number of work items this cpu completed
system.cpu.committedInsts                    47700244                       # Number of instructions committed
system.cpu.committedOps                      82046706                       # Number of ops (including micro ops) committed
system.cpu.discardedOps                      18240499                       # Number of ops (including micro ops) which were discarded before commit
system.cpu.numFetchSuspends                         0                       # Number of times Execute suspended instruction fetching
system.cpu.cpi                              70.115553                       # CPI: cycles per instruction
system.cpu.ipc                               0.014262                       # IPC: instructions per cycle
system.cpu.op_class_0::No_OpClass                1287      0.00%      0.00% # Class of committed instruction
system.cpu.op_class_0::IntAlu                50852257     61.98%     61.98% # Class of committed instruction
system.cpu.op_class_0::IntMult                   1192      0.00%     61.98% # Class of committed instruction
system.cpu.op_class_0::IntDiv                    1131      0.00%     61.98% # Class of committed instruction
system.cpu.op_class_0::FloatAdd                  2227      0.00%     61.99% # Class of committed instruction
system.cpu.op_class_0::FloatCmp                     0      0.00%     61.99% # Class of committed instruction
system.cpu.op_class_0::FloatCvt                     0      0.00%     61.99% # Class of committed instruction
system.cpu.op_class_0::FloatMult                    0      0.00%     61.99% # Class of committed instruction
system.cpu.op_class_0::FloatMultAcc                 0      0.00%     61.99% # Class of committed instruction
system.cpu.op_class_0::FloatDiv                     0      0.00%     61.99% # Class of committed instruction
system.cpu.op_class_0::FloatMisc                    0      0.00%     61.99% # Class of committed instruction
system.cpu.op_class_0::FloatSqrt                    0      0.00%     61.99% # Class of committed instruction
system.cpu.op_class_0::SimdAdd                      0      0.00%     61.99% # Class of committed instruction
system.cpu.op_class_0::SimdAddAcc                   0      0.00%     61.99% # Class of committed instruction
system.cpu.op_class_0::SimdAlu                      0      0.00%     61.99% # Class of committed instruction
system.cpu.op_class_0::SimdCmp                      0      0.00%     61.99% # Class of committed instruction
system.cpu.op_class_0::SimdCvt                      0      0.00%     61.99% # Class of committed instruction
system.cpu.op_class_0::SimdMisc                     0      0.00%     61.99% # Class of committed instruction
system.cpu.op_class_0::SimdMult                     0      0.00%     61.99% # Class of committed instruction
system.cpu.op_class_0::SimdMultAcc                  0      0.00%     61.99% # Class of committed instruction
system.cpu.op_class_0::SimdShift                    0      0.00%     61.99% # Class of committed instruction
system.cpu.op_class_0::SimdShiftAcc                 0      0.00%     61.99% # Class of committed instruction
system.cpu.op_class_0::SimdSqrt                     0      0.00%     61.99% # Class of committed instruction
system.cpu.op_class_0::SimdFloatAdd                 0      0.00%     61.99% # Class of committed instruction
system.cpu.op_class_0::SimdFloatAlu                 0      0.00%     61.99% # Class of committed instruction
system.cpu.op_class_0::SimdFloatCmp                 0      0.00%     61.99% # Class of committed instruction
system.cpu.op_class_0::SimdFloatCvt                 0      0.00%     61.99% # Class of committed instruction
system.cpu.op_class_0::SimdFloatDiv                 0      0.00%     61.99% # Class of committed instruction
system.cpu.op_class_0::SimdFloatMisc                0      0.00%     61.99% # Class of committed instruction
system.cpu.op_class_0::SimdFloatMult                0      0.00%     61.99% # Class of committed instruction
system.cpu.op_class_0::SimdFloatMultAcc             0      0.00%     61.99% # Class of committed instruction
system.cpu.op_class_0::SimdFloatSqrt                0      0.00%     61.99% # Class of committed instruction
system.cpu.op_class_0::MemRead               23853209     29.07%     91.06% # Class of committed instruction
system.cpu.op_class_0::MemWrite               7334237      8.94%    100.00% # Class of committed instruction
system.cpu.op_class_0::FloatMemRead               782      0.00%    100.00% # Class of committed instruction
system.cpu.op_class_0::FloatMemWrite              384      0.00%    100.00% # Class of committed instruction
system.cpu.op_class_0::IprAccess                    0      0.00%    100.00% # Class of committed instruction
system.cpu.op_class_0::InstPrefetch                 0      0.00%    100.00% # Class of committed instruction
system.cpu.op_class_0::total                 82046706                       # Class of committed instruction
system.cpu.tickCycles                       257371347                       # Number of cycles that the object actually ticked
system.cpu.idleCycles                      3087157637                       # Total number of cycles that the object has spent stopped
system.membus.snoop_filter.tot_requests             0                       # Total number of requests made to the snoop filter.
system.membus.snoop_filter.hit_single_requests            0                       # Number of requests hitting in the snoop filter with a single holder of the requested data.
system.membus.snoop_filter.hit_multi_requests            0                       # Number of requests hitting in the snoop filter with multiple (>1) holders of the requested data.
system.membus.snoop_filter.tot_snoops               0                       # Total number of snoops made to the snoop filter.
system.membus.snoop_filter.hit_single_snoops            0                       # Number of snoops hitting in the snoop filter with a single holder of the requested data.
system.membus.snoop_filter.hit_multi_snoops            0                       # Number of snoops hitting in the snoop filter with multiple (>1) holders of the requested data.
system.membus.pwrStateResidencyTicks::UNDEFINED 1113728151672                       # Cumulative time (in ticks) in various power states
system.membus.trans_dist::ReadReq            45214499                       # Transaction distribution
system.membus.trans_dist::ReadResp           45214498                       # Transaction distribution
system.membus.trans_dist::WriteReq            7334621                       # Transaction distribution
system.membus.trans_dist::WriteResp           7334621                       # Transaction distribution
system.membus.pkt_count_system.cpu.fetch1.icache_port::system.mem_ctrl.port     36621811                       # Packet count per connected master and slave (bytes)
system.membus.pkt_count_system.cpu.fetch1.icache_port::total     36621811                       # Packet count per connected master and slave (bytes)
system.membus.pkt_count_system.cpu.execute.dcache_port::system.mem_ctrl.port     68476428                       # Packet count per connected master and slave (bytes)
system.membus.pkt_count_system.cpu.execute.dcache_port::total     68476428                       # Packet count per connected master and slave (bytes)
system.membus.pkt_count::total              105098239                       # Packet count per connected master and slave (bytes)
system.membus.pkt_size_system.cpu.fetch1.icache_port::system.mem_ctrl.port   1171897920                       # Cumulative packet size per connected master and slave (bytes)
system.membus.pkt_size_system.cpu.fetch1.icache_port::total   1171897920                       # Cumulative packet size per connected master and slave (bytes)
system.membus.pkt_size_system.cpu.execute.dcache_port::system.mem_ctrl.port    153560593                       # Cumulative packet size per connected master and slave (bytes)
system.membus.pkt_size_system.cpu.execute.dcache_port::total    153560593                       # Cumulative packet size per connected master and slave (bytes)
system.membus.pkt_size::total              1325458513                       # Cumulative packet size per connected master and slave (bytes)
system.membus.snoops                                0                       # Total snoops (count)
system.membus.snoopTraffic                          0                       # Total snoop traffic (bytes)
system.membus.snoop_fanout::samples          52549120                       # Request fanout histogram
system.membus.snoop_fanout::mean                    0                       # Request fanout histogram
system.membus.snoop_fanout::stdev                   0                       # Request fanout histogram
system.membus.snoop_fanout::underflows              0      0.00%      0.00% # Request fanout histogram
system.membus.snoop_fanout::0                52549120    100.00%    100.00% # Request fanout histogram
system.membus.snoop_fanout::1                       0      0.00%    100.00% # Request fanout histogram
system.membus.snoop_fanout::overflows               0      0.00%    100.00% # Request fanout histogram
system.membus.snoop_fanout::min_value               0                       # Request fanout histogram
system.membus.snoop_fanout::max_value               0                       # Request fanout histogram
system.membus.snoop_fanout::total            52549120                       # Request fanout histogram
system.membus.reqLayer2.occupancy         19941285753                       # Layer occupancy (ticks)
system.membus.reqLayer2.utilization               1.8                       # Layer utilization (%)
system.membus.respLayer0.occupancy        32334139273                       # Layer occupancy (ticks)
system.membus.respLayer0.utilization              2.9                       # Layer utilization (%)
system.membus.respLayer1.occupancy        27009243216                       # Layer occupancy (ticks)
system.membus.respLayer1.utilization              2.4                       # Layer utilization (%)

---------- End Simulation Statistics   ----------
