
---------- Begin Simulation Statistics ----------
sim_seconds                                  0.016906                       # Number of seconds simulated
sim_ticks                                 16906254000                       # Number of ticks simulated
final_tick                                16906254000                       # Number of ticks from beginning of simulation (restored from checkpoints and never reset)
sim_freq                                 1000000000000                       # Frequency of simulated ticks
host_inst_rate                                 191736                       # Simulator instruction rate (inst/s)
host_op_rate                                   351248                       # Simulator op (including micro ops) rate (op/s)
host_tick_rate                            17979737595                       # Simulator tick rate (ticks/s)
host_mem_usage                                 665092                       # Number of bytes of host memory used
host_seconds                                     0.94                       # Real time elapsed on the host
sim_insts                                      180286                       # Number of instructions simulated
sim_ops                                        330274                       # Number of ops (including micro ops) simulated
system.clk_domain.voltage_domain.voltage            1                       # Voltage in Volts
system.clk_domain.clock                           400                       # Clock period in ticks
system.mem_ctrl.pwrStateResidencyTicks::UNDEFINED  16906254000                       # Cumulative time (in ticks) in various power states
system.mem_ctrl.bytes_read::cpu.inst          1905304                       # Number of bytes read from this memory
system.mem_ctrl.bytes_read::cpu.data           289512                       # Number of bytes read from this memory
system.mem_ctrl.bytes_read::total             2194816                       # Number of bytes read from this memory
system.mem_ctrl.bytes_inst_read::cpu.inst      1905304                       # Number of instructions bytes read from this memory
system.mem_ctrl.bytes_inst_read::total        1905304                       # Number of instructions bytes read from this memory
system.mem_ctrl.bytes_written::cpu.data        106799                       # Number of bytes written to this memory
system.mem_ctrl.bytes_written::total           106799                       # Number of bytes written to this memory
system.mem_ctrl.num_reads::cpu.inst            238163                       # Number of read requests responded to by this memory
system.mem_ctrl.num_reads::cpu.data             55399                       # Number of read requests responded to by this memory
system.mem_ctrl.num_reads::total               293562                       # Number of read requests responded to by this memory
system.mem_ctrl.num_writes::cpu.data            16868                       # Number of write requests responded to by this memory
system.mem_ctrl.num_writes::total               16868                       # Number of write requests responded to by this memory
system.mem_ctrl.bw_read::cpu.inst           112698177                       # Total read bandwidth from this memory (bytes/s)
system.mem_ctrl.bw_read::cpu.data            17124550                       # Total read bandwidth from this memory (bytes/s)
system.mem_ctrl.bw_read::total              129822727                       # Total read bandwidth from this memory (bytes/s)
system.mem_ctrl.bw_inst_read::cpu.inst      112698177                       # Instruction read bandwidth from this memory (bytes/s)
system.mem_ctrl.bw_inst_read::total         112698177                       # Instruction read bandwidth from this memory (bytes/s)
system.mem_ctrl.bw_write::cpu.data            6317130                       # Write bandwidth from this memory (bytes/s)
system.mem_ctrl.bw_write::total               6317130                       # Write bandwidth from this memory (bytes/s)
system.mem_ctrl.bw_total::cpu.inst          112698177                       # Total bandwidth to/from this memory (bytes/s)
system.mem_ctrl.bw_total::cpu.data           23441680                       # Total bandwidth to/from this memory (bytes/s)
system.mem_ctrl.bw_total::total             136139857                       # Total bandwidth to/from this memory (bytes/s)
system.mem_ctrl.readReqs                       293563                       # Number of read requests accepted
system.mem_ctrl.writeReqs                       16868                       # Number of write requests accepted
system.mem_ctrl.readBursts                     293571                       # Number of DRAM read bursts, including those serviced by the write queue
system.mem_ctrl.writeBursts                     16868                       # Number of DRAM write bursts, including those merged in the write queue
system.mem_ctrl.bytesReadDRAM                 9078272                       # Total number of bytes read from DRAM
system.mem_ctrl.bytesReadWrQ                   316000                       # Total number of bytes read from write queue
system.mem_ctrl.bytesWritten                    78304                       # Total number of bytes written to DRAM
system.mem_ctrl.bytesReadSys                  2194824                       # Total read bytes from the system interface side
system.mem_ctrl.bytesWrittenSys                106799                       # Total written bytes from the system interface side
system.mem_ctrl.servicedByWrQ                    9875                       # Number of DRAM read bursts serviced by the write queue
system.mem_ctrl.mergedWrBursts                  14390                       # Number of DRAM write bursts merged with an existing one
system.mem_ctrl.neitherReadNorWriteReqs             0                       # Number of requests that are neither read nor write
system.mem_ctrl.perBankRdBursts::0              80557                       # Per bank write bursts
system.mem_ctrl.perBankRdBursts::1              57964                       # Per bank write bursts
system.mem_ctrl.perBankRdBursts::2              14457                       # Per bank write bursts
system.mem_ctrl.perBankRdBursts::3              35731                       # Per bank write bursts
system.mem_ctrl.perBankRdBursts::4               9735                       # Per bank write bursts
system.mem_ctrl.perBankRdBursts::5              48606                       # Per bank write bursts
system.mem_ctrl.perBankRdBursts::6              30605                       # Per bank write bursts
system.mem_ctrl.perBankRdBursts::7               6041                       # Per bank write bursts
system.mem_ctrl.perBankWrBursts::0                306                       # Per bank write bursts
system.mem_ctrl.perBankWrBursts::1                380                       # Per bank write bursts
system.mem_ctrl.perBankWrBursts::2                735                       # Per bank write bursts
system.mem_ctrl.perBankWrBursts::3                534                       # Per bank write bursts
system.mem_ctrl.perBankWrBursts::4                 84                       # Per bank write bursts
system.mem_ctrl.perBankWrBursts::5                130                       # Per bank write bursts
system.mem_ctrl.perBankWrBursts::6                138                       # Per bank write bursts
system.mem_ctrl.perBankWrBursts::7                140                       # Per bank write bursts
system.mem_ctrl.numRdRetry                          0                       # Number of times read queue was full causing retry
system.mem_ctrl.numWrRetry                          0                       # Number of times write queue was full causing retry
system.mem_ctrl.totGap                    16906177200                       # Total gap between requests
system.mem_ctrl.readPktSize::0                   7382                       # Read request sizes (log2)
system.mem_ctrl.readPktSize::1                   2603                       # Read request sizes (log2)
system.mem_ctrl.readPktSize::2                  21608                       # Read request sizes (log2)
system.mem_ctrl.readPktSize::3                 261978                       # Read request sizes (log2)
system.mem_ctrl.readPktSize::4                      0                       # Read request sizes (log2)
system.mem_ctrl.readPktSize::5                      0                       # Read request sizes (log2)
system.mem_ctrl.writePktSize::0                   103                       # Write request sizes (log2)
system.mem_ctrl.writePktSize::1                    20                       # Write request sizes (log2)
system.mem_ctrl.writePktSize::2                  6826                       # Write request sizes (log2)
system.mem_ctrl.writePktSize::3                  9919                       # Write request sizes (log2)
system.mem_ctrl.writePktSize::4                     0                       # Write request sizes (log2)
system.mem_ctrl.writePktSize::5                     0                       # Write request sizes (log2)
system.mem_ctrl.rdQLenPdf::0                   283679                       # What read queue length does an incoming req see
system.mem_ctrl.rdQLenPdf::1                       17                       # What read queue length does an incoming req see
system.mem_ctrl.rdQLenPdf::2                        0                       # What read queue length does an incoming req see
system.mem_ctrl.rdQLenPdf::3                        0                       # What read queue length does an incoming req see
system.mem_ctrl.rdQLenPdf::4                        0                       # What read queue length does an incoming req see
system.mem_ctrl.rdQLenPdf::5                        0                       # What read queue length does an incoming req see
system.mem_ctrl.rdQLenPdf::6                        0                       # What read queue length does an incoming req see
system.mem_ctrl.rdQLenPdf::7                        0                       # What read queue length does an incoming req see
system.mem_ctrl.rdQLenPdf::8                        0                       # What read queue length does an incoming req see
system.mem_ctrl.rdQLenPdf::9                        0                       # What read queue length does an incoming req see
system.mem_ctrl.rdQLenPdf::10                       0                       # What read queue length does an incoming req see
system.mem_ctrl.rdQLenPdf::11                       0                       # What read queue length does an incoming req see
system.mem_ctrl.rdQLenPdf::12                       0                       # What read queue length does an incoming req see
system.mem_ctrl.rdQLenPdf::13                       0                       # What read queue length does an incoming req see
system.mem_ctrl.rdQLenPdf::14                       0                       # What read queue length does an incoming req see
system.mem_ctrl.rdQLenPdf::15                       0                       # What read queue length does an incoming req see
system.mem_ctrl.rdQLenPdf::16                       0                       # What read queue length does an incoming req see
system.mem_ctrl.rdQLenPdf::17                       0                       # What read queue length does an incoming req see
system.mem_ctrl.rdQLenPdf::18                       0                       # What read queue length does an incoming req see
system.mem_ctrl.rdQLenPdf::19                       0                       # What read queue length does an incoming req see
system.mem_ctrl.rdQLenPdf::20                       0                       # What read queue length does an incoming req see
system.mem_ctrl.rdQLenPdf::21                       0                       # What read queue length does an incoming req see
system.mem_ctrl.rdQLenPdf::22                       0                       # What read queue length does an incoming req see
system.mem_ctrl.rdQLenPdf::23                       0                       # What read queue length does an incoming req see
system.mem_ctrl.rdQLenPdf::24                       0                       # What read queue length does an incoming req see
system.mem_ctrl.rdQLenPdf::25                       0                       # What read queue length does an incoming req see
system.mem_ctrl.rdQLenPdf::26                       0                       # What read queue length does an incoming req see
system.mem_ctrl.rdQLenPdf::27                       0                       # What read queue length does an incoming req see
system.mem_ctrl.rdQLenPdf::28                       0                       # What read queue length does an incoming req see
system.mem_ctrl.rdQLenPdf::29                       0                       # What read queue length does an incoming req see
system.mem_ctrl.rdQLenPdf::30                       0                       # What read queue length does an incoming req see
system.mem_ctrl.rdQLenPdf::31                       0                       # What read queue length does an incoming req see
system.mem_ctrl.wrQLenPdf::0                        1                       # What write queue length does an incoming req see
system.mem_ctrl.wrQLenPdf::1                        1                       # What write queue length does an incoming req see
system.mem_ctrl.wrQLenPdf::2                        1                       # What write queue length does an incoming req see
system.mem_ctrl.wrQLenPdf::3                        1                       # What write queue length does an incoming req see
system.mem_ctrl.wrQLenPdf::4                        1                       # What write queue length does an incoming req see
system.mem_ctrl.wrQLenPdf::5                        1                       # What write queue length does an incoming req see
system.mem_ctrl.wrQLenPdf::6                        1                       # What write queue length does an incoming req see
system.mem_ctrl.wrQLenPdf::7                        1                       # What write queue length does an incoming req see
system.mem_ctrl.wrQLenPdf::8                        1                       # What write queue length does an incoming req see
system.mem_ctrl.wrQLenPdf::9                        1                       # What write queue length does an incoming req see
system.mem_ctrl.wrQLenPdf::10                       1                       # What write queue length does an incoming req see
system.mem_ctrl.wrQLenPdf::11                       1                       # What write queue length does an incoming req see
system.mem_ctrl.wrQLenPdf::12                       1                       # What write queue length does an incoming req see
system.mem_ctrl.wrQLenPdf::13                       1                       # What write queue length does an incoming req see
system.mem_ctrl.wrQLenPdf::14                       1                       # What write queue length does an incoming req see
system.mem_ctrl.wrQLenPdf::15                       5                       # What write queue length does an incoming req see
system.mem_ctrl.wrQLenPdf::16                       7                       # What write queue length does an incoming req see
system.mem_ctrl.wrQLenPdf::17                     154                       # What write queue length does an incoming req see
system.mem_ctrl.wrQLenPdf::18                     153                       # What write queue length does an incoming req see
system.mem_ctrl.wrQLenPdf::19                     153                       # What write queue length does an incoming req see
system.mem_ctrl.wrQLenPdf::20                     153                       # What write queue length does an incoming req see
system.mem_ctrl.wrQLenPdf::21                     155                       # What write queue length does an incoming req see
system.mem_ctrl.wrQLenPdf::22                     153                       # What write queue length does an incoming req see
system.mem_ctrl.wrQLenPdf::23                     154                       # What write queue length does an incoming req see
system.mem_ctrl.wrQLenPdf::24                     154                       # What write queue length does an incoming req see
system.mem_ctrl.wrQLenPdf::25                     153                       # What write queue length does an incoming req see
system.mem_ctrl.wrQLenPdf::26                     153                       # What write queue length does an incoming req see
system.mem_ctrl.wrQLenPdf::27                     153                       # What write queue length does an incoming req see
system.mem_ctrl.wrQLenPdf::28                     153                       # What write queue length does an incoming req see
system.mem_ctrl.wrQLenPdf::29                     153                       # What write queue length does an incoming req see
system.mem_ctrl.wrQLenPdf::30                     153                       # What write queue length does an incoming req see
system.mem_ctrl.wrQLenPdf::31                     152                       # What write queue length does an incoming req see
system.mem_ctrl.wrQLenPdf::32                     152                       # What write queue length does an incoming req see
system.mem_ctrl.wrQLenPdf::33                       0                       # What write queue length does an incoming req see
system.mem_ctrl.wrQLenPdf::34                       0                       # What write queue length does an incoming req see
system.mem_ctrl.wrQLenPdf::35                       0                       # What write queue length does an incoming req see
system.mem_ctrl.wrQLenPdf::36                       0                       # What write queue length does an incoming req see
system.mem_ctrl.wrQLenPdf::37                       0                       # What write queue length does an incoming req see
system.mem_ctrl.wrQLenPdf::38                       0                       # What write queue length does an incoming req see
system.mem_ctrl.wrQLenPdf::39                       0                       # What write queue length does an incoming req see
system.mem_ctrl.wrQLenPdf::40                       0                       # What write queue length does an incoming req see
system.mem_ctrl.wrQLenPdf::41                       0                       # What write queue length does an incoming req see
system.mem_ctrl.wrQLenPdf::42                       0                       # What write queue length does an incoming req see
system.mem_ctrl.wrQLenPdf::43                       0                       # What write queue length does an incoming req see
system.mem_ctrl.wrQLenPdf::44                       0                       # What write queue length does an incoming req see
system.mem_ctrl.wrQLenPdf::45                       0                       # What write queue length does an incoming req see
system.mem_ctrl.wrQLenPdf::46                       0                       # What write queue length does an incoming req see
system.mem_ctrl.wrQLenPdf::47                       0                       # What write queue length does an incoming req see
system.mem_ctrl.wrQLenPdf::48                       0                       # What write queue length does an incoming req see
system.mem_ctrl.wrQLenPdf::49                       0                       # What write queue length does an incoming req see
system.mem_ctrl.wrQLenPdf::50                       0                       # What write queue length does an incoming req see
system.mem_ctrl.wrQLenPdf::51                       0                       # What write queue length does an incoming req see
system.mem_ctrl.wrQLenPdf::52                       0                       # What write queue length does an incoming req see
system.mem_ctrl.wrQLenPdf::53                       0                       # What write queue length does an incoming req see
system.mem_ctrl.wrQLenPdf::54                       0                       # What write queue length does an incoming req see
system.mem_ctrl.wrQLenPdf::55                       0                       # What write queue length does an incoming req see
system.mem_ctrl.wrQLenPdf::56                       0                       # What write queue length does an incoming req see
system.mem_ctrl.wrQLenPdf::57                       0                       # What write queue length does an incoming req see
system.mem_ctrl.wrQLenPdf::58                       0                       # What write queue length does an incoming req see
system.mem_ctrl.wrQLenPdf::59                       0                       # What write queue length does an incoming req see
system.mem_ctrl.wrQLenPdf::60                       0                       # What write queue length does an incoming req see
system.mem_ctrl.wrQLenPdf::61                       0                       # What write queue length does an incoming req see
system.mem_ctrl.wrQLenPdf::62                       0                       # What write queue length does an incoming req see
system.mem_ctrl.wrQLenPdf::63                       0                       # What write queue length does an incoming req see
system.mem_ctrl.bytesPerActivate::samples        38249                       # Bytes accessed per row activation
system.mem_ctrl.bytesPerActivate::mean     239.372114                       # Bytes accessed per row activation
system.mem_ctrl.bytesPerActivate::gmean    145.326301                       # Bytes accessed per row activation
system.mem_ctrl.bytesPerActivate::stdev    197.926894                       # Bytes accessed per row activation
system.mem_ctrl.bytesPerActivate::0-63           9852     25.76%     25.76% # Bytes accessed per row activation
system.mem_ctrl.bytesPerActivate::64-127         6231     16.29%     42.05% # Bytes accessed per row activation
system.mem_ctrl.bytesPerActivate::128-191         3355      8.77%     50.82% # Bytes accessed per row activation
system.mem_ctrl.bytesPerActivate::192-255         2786      7.28%     58.10% # Bytes accessed per row activation
system.mem_ctrl.bytesPerActivate::256-319         2079      5.44%     63.54% # Bytes accessed per row activation
system.mem_ctrl.bytesPerActivate::320-383         1379      3.61%     67.14% # Bytes accessed per row activation
system.mem_ctrl.bytesPerActivate::384-447          958      2.50%     69.65% # Bytes accessed per row activation
system.mem_ctrl.bytesPerActivate::448-511         1018      2.66%     72.31% # Bytes accessed per row activation
system.mem_ctrl.bytesPerActivate::512-575        10591     27.69%    100.00% # Bytes accessed per row activation
system.mem_ctrl.bytesPerActivate::total         38249                       # Bytes accessed per row activation
system.mem_ctrl.rdPerTurnAround::samples          152                       # Reads before turning the bus around for writes
system.mem_ctrl.rdPerTurnAround::mean     1858.618421                       # Reads before turning the bus around for writes
system.mem_ctrl.rdPerTurnAround::stdev    7689.408926                       # Reads before turning the bus around for writes
system.mem_ctrl.rdPerTurnAround::0-4095           146     96.05%     96.05% # Reads before turning the bus around for writes
system.mem_ctrl.rdPerTurnAround::4096-8191            2      1.32%     97.37% # Reads before turning the bus around for writes
system.mem_ctrl.rdPerTurnAround::16384-20479            1      0.66%     98.03% # Reads before turning the bus around for writes
system.mem_ctrl.rdPerTurnAround::20480-24575            1      0.66%     98.68% # Reads before turning the bus around for writes
system.mem_ctrl.rdPerTurnAround::24576-28671            1      0.66%     99.34% # Reads before turning the bus around for writes
system.mem_ctrl.rdPerTurnAround::86016-90111            1      0.66%    100.00% # Reads before turning the bus around for writes
system.mem_ctrl.rdPerTurnAround::total            152                       # Reads before turning the bus around for writes
system.mem_ctrl.wrPerTurnAround::samples          152                       # Writes before turning the bus around for reads
system.mem_ctrl.wrPerTurnAround::mean       16.098684                       # Writes before turning the bus around for reads
system.mem_ctrl.wrPerTurnAround::gmean      16.088801                       # Writes before turning the bus around for reads
system.mem_ctrl.wrPerTurnAround::stdev       0.606367                       # Writes before turning the bus around for reads
system.mem_ctrl.wrPerTurnAround::16               148     97.37%     97.37% # Writes before turning the bus around for reads
system.mem_ctrl.wrPerTurnAround::19                 1      0.66%     98.03% # Writes before turning the bus around for reads
system.mem_ctrl.wrPerTurnAround::20                 3      1.97%    100.00% # Writes before turning the bus around for reads
system.mem_ctrl.wrPerTurnAround::total            152                       # Writes before turning the bus around for reads
system.mem_ctrl.totQLat                    3329449334                       # Total ticks spent queuing
system.mem_ctrl.totMemAccLat               9712609334                       # Total ticks spent from burst creation until serviced by the DRAM
system.mem_ctrl.totBusLat                  2127720000                       # Total ticks spent in databus transfers
system.mem_ctrl.avgQLat                      11735.98                       # Average queueing delay per DRAM burst
system.mem_ctrl.avgBusLat                     7500.00                       # Average bus latency per DRAM burst
system.mem_ctrl.avgMemAccLat                 34235.98                       # Average memory access latency per DRAM burst
system.mem_ctrl.avgRdBW                        536.98                       # Average DRAM read bandwidth in MiByte/s
system.mem_ctrl.avgWrBW                          4.63                       # Average achieved write bandwidth in MiByte/s
system.mem_ctrl.avgRdBWSys                     129.82                       # Average system read bandwidth in MiByte/s
system.mem_ctrl.avgWrBWSys                       6.32                       # Average system write bandwidth in MiByte/s
system.mem_ctrl.peakBW                        4266.00                       # Theoretical peak bandwidth in MiByte/s
system.mem_ctrl.busUtil                         12.70                       # Data bus utilization in percentage
system.mem_ctrl.busUtilRead                     12.59                       # Data bus utilization in percentage for reads
system.mem_ctrl.busUtilWrite                     0.11                       # Data bus utilization in percentage for writes
system.mem_ctrl.avgRdQLen                        1.00                       # Average read queue length when enqueuing
system.mem_ctrl.avgWrQLen                       26.22                       # Average write queue length when enqueuing
system.mem_ctrl.readRowHits                    245797                       # Number of row buffer hits during reads
system.mem_ctrl.writeRowHits                     2093                       # Number of row buffer hits during writes
system.mem_ctrl.readRowHitRate                  86.64                       # Row buffer hit rate for reads
system.mem_ctrl.writeRowHitRate                 84.46                       # Row buffer hit rate for writes
system.mem_ctrl.avgGap                       54460.34                       # Average gap between requests
system.mem_ctrl.pageHitRate                     86.62                       # Row buffer hit rate, read and write combined
system.mem_ctrl_0.actEnergy              116363101.302000                       # Energy for activate commands per rank (pJ)
system.mem_ctrl_0.preEnergy              40986526.828800                       # Energy for precharge commands per rank (pJ)
system.mem_ctrl_0.readEnergy             487293142.392000                       # Energy for read commands per rank (pJ)
system.mem_ctrl_0.writeEnergy            3773450.184000                       # Energy for write commands per rank (pJ)
system.mem_ctrl_0.refreshEnergy          120845457.180000                       # Energy for refresh commands per rank (pJ)
system.mem_ctrl_0.actBackEnergy          400748164.362000                       # Energy for active background per rank (pJ)
system.mem_ctrl_0.preBackEnergy          6908858.510400                       # Energy for precharge background per rank (pJ)
system.mem_ctrl_0.actPowerDownEnergy     80303262.076800                       # Energy for active power-down per rank (pJ)
system.mem_ctrl_0.prePowerDownEnergy     16858.111200                       # Energy for precharge power-down per rank (pJ)
system.mem_ctrl_0.selfRefreshEnergy                 0                       # Energy for self refresh per rank (pJ)
system.mem_ctrl_0.totalEnergy            1257238820.947200                       # Total energy per rank (pJ)
system.mem_ctrl_0.averagePower              74.365306                       # Core power per rank (mW)
system.mem_ctrl_0.totalIdleTime            6836593600                       # Total Idle time Per DRAM Rank
system.mem_ctrl_0.memoryStateTime::IDLE      14940000                       # Time in different power states
system.mem_ctrl_0.memoryStateTime::REF      565630000                       # Time in different power states
system.mem_ctrl_0.memoryStateTime::SREF             0                       # Time in different power states
system.mem_ctrl_0.memoryStateTime::PRE_PDN      8255908                       # Time in different power states
system.mem_ctrl_0.memoryStateTime::ACT     9489090400                       # Time in different power states
system.mem_ctrl_0.memoryStateTime::ACT_PDN   6828337692                       # Time in different power states
system.pwrStateResidencyTicks::UNDEFINED  16906254000                       # Cumulative time (in ticks) in various power states
system.cpu.dtb.walker.pwrStateResidencyTicks::UNDEFINED  16906254000                       # Cumulative time (in ticks) in various power states
system.cpu.dtb.rdAccesses                       55399                       # TLB accesses on read requests
system.cpu.dtb.wrAccesses                       16868                       # TLB accesses on write requests
system.cpu.dtb.rdMisses                            70                       # TLB misses on read requests
system.cpu.dtb.wrMisses                            17                       # TLB misses on write requests
system.cpu.apic_clk_domain.clock                 6400                       # Clock period in ticks
system.cpu.interrupts.pwrStateResidencyTicks::UNDEFINED  16906254000                       # Cumulative time (in ticks) in various power states
system.cpu.itb.walker.pwrStateResidencyTicks::UNDEFINED  16906254000                       # Cumulative time (in ticks) in various power states
system.cpu.itb.rdAccesses                           0                       # TLB accesses on read requests
system.cpu.itb.wrAccesses                      238164                       # TLB accesses on write requests
system.cpu.itb.rdMisses                             0                       # TLB misses on read requests
system.cpu.itb.wrMisses                            88                       # TLB misses on write requests
system.cpu.workload.numSyscalls                    32                       # Number of system calls
system.cpu.pwrStateResidencyTicks::ON     16906254000                       # Cumulative time (in ticks) in various power states
system.cpu.numCycles                         42265635                       # number of cpu cycles simulated
system.cpu.numWorkItemsStarted                      0                       # number of work items this cpu started
system.cpu.numWorkItemsCompleted                    0                       # number of work items this cpu completed
system.cpu.committedInsts                      180286                       # Number of instructions committed
system.cpu.committedOps                        330274                       # Number of ops (including micro ops) committed
system.cpu.num_int_alu_accesses                326983                       # Number of integer alu accesses
system.cpu.num_fp_alu_accesses                   3447                       # Number of float alu accesses
system.cpu.num_vec_alu_accesses                     0                       # Number of vector alu accesses
system.cpu.num_func_calls                        1354                       # number of times a function call or return occured
system.cpu.num_conditional_control_insts        31515                       # number of instructions that are conditional controls
system.cpu.num_int_insts                       326983                       # number of integer instructions
system.cpu.num_fp_insts                          3447                       # number of float instructions
system.cpu.num_vec_insts                            0                       # number of vector instructions
system.cpu.num_int_register_reads              646209                       # number of times the integer registers were read
system.cpu.num_int_register_writes             277717                       # number of times the integer registers were written
system.cpu.num_fp_register_reads                 5525                       # number of times the floating registers were read
system.cpu.num_fp_register_writes                2660                       # number of times the floating registers were written
system.cpu.num_vec_register_reads                   0                       # number of times the vector registers were read
system.cpu.num_vec_register_writes                  0                       # number of times the vector registers were written
system.cpu.num_cc_register_reads               192826                       # number of times the CC registers were read
system.cpu.num_cc_register_writes              133379                       # number of times the CC registers were written
system.cpu.num_mem_refs                         72258                       # number of memory refs
system.cpu.num_load_insts                       55390                       # Number of load instructions
system.cpu.num_store_insts                      16868                       # Number of store instructions
system.cpu.num_idle_cycles                          0                       # Number of idle cycles
system.cpu.num_busy_cycles                   42265635                       # Number of busy cycles
system.cpu.not_idle_fraction                        1                       # Percentage of non-idle cycles
system.cpu.idle_fraction                            0                       # Percentage of idle cycles
system.cpu.Branches                             34663                       # Number of branches fetched
system.cpu.op_class::No_OpClass                  1287      0.39%      0.39% # Class of executed instruction
system.cpu.op_class::IntAlu                    253310     76.70%     77.09% # Class of executed instruction
system.cpu.op_class::IntMult                       61      0.02%     77.11% # Class of executed instruction
system.cpu.op_class::IntDiv                      1131      0.34%     77.45% # Class of executed instruction
system.cpu.op_class::FloatAdd                    2227      0.67%     78.12% # Class of executed instruction
system.cpu.op_class::FloatCmp                       0      0.00%     78.12% # Class of executed instruction
system.cpu.op_class::FloatCvt                       0      0.00%     78.12% # Class of executed instruction
system.cpu.op_class::FloatMult                      0      0.00%     78.12% # Class of executed instruction
system.cpu.op_class::FloatMultAcc                   0      0.00%     78.12% # Class of executed instruction
system.cpu.op_class::FloatDiv                       0      0.00%     78.12% # Class of executed instruction
system.cpu.op_class::FloatMisc                      0      0.00%     78.12% # Class of executed instruction
system.cpu.op_class::FloatSqrt                      0      0.00%     78.12% # Class of executed instruction
system.cpu.op_class::SimdAdd                        0      0.00%     78.12% # Class of executed instruction
system.cpu.op_class::SimdAddAcc                     0      0.00%     78.12% # Class of executed instruction
system.cpu.op_class::SimdAlu                        0      0.00%     78.12% # Class of executed instruction
system.cpu.op_class::SimdCmp                        0      0.00%     78.12% # Class of executed instruction
system.cpu.op_class::SimdCvt                        0      0.00%     78.12% # Class of executed instruction
system.cpu.op_class::SimdMisc                       0      0.00%     78.12% # Class of executed instruction
system.cpu.op_class::SimdMult                       0      0.00%     78.12% # Class of executed instruction
system.cpu.op_class::SimdMultAcc                    0      0.00%     78.12% # Class of executed instruction
system.cpu.op_class::SimdShift                      0      0.00%     78.12% # Class of executed instruction
system.cpu.op_class::SimdShiftAcc                   0      0.00%     78.12% # Class of executed instruction
system.cpu.op_class::SimdSqrt                       0      0.00%     78.12% # Class of executed instruction
system.cpu.op_class::SimdFloatAdd                   0      0.00%     78.12% # Class of executed instruction
system.cpu.op_class::SimdFloatAlu                   0      0.00%     78.12% # Class of executed instruction
system.cpu.op_class::SimdFloatCmp                   0      0.00%     78.12% # Class of executed instruction
system.cpu.op_class::SimdFloatCvt                   0      0.00%     78.12% # Class of executed instruction
system.cpu.op_class::SimdFloatDiv                   0      0.00%     78.12% # Class of executed instruction
system.cpu.op_class::SimdFloatMisc                  0      0.00%     78.12% # Class of executed instruction
system.cpu.op_class::SimdFloatMult                  0      0.00%     78.12% # Class of executed instruction
system.cpu.op_class::SimdFloatMultAcc               0      0.00%     78.12% # Class of executed instruction
system.cpu.op_class::SimdFloatSqrt                  0      0.00%     78.12% # Class of executed instruction
system.cpu.op_class::MemRead                    54608     16.53%     94.66% # Class of executed instruction
system.cpu.op_class::MemWrite                   16484      4.99%     99.65% # Class of executed instruction
system.cpu.op_class::FloatMemRead                 782      0.24%     99.88% # Class of executed instruction
system.cpu.op_class::FloatMemWrite                384      0.12%    100.00% # Class of executed instruction
system.cpu.op_class::IprAccess                      0      0.00%    100.00% # Class of executed instruction
system.cpu.op_class::InstPrefetch                   0      0.00%    100.00% # Class of executed instruction
system.cpu.op_class::total                     330274                       # Class of executed instruction
system.membus.snoop_filter.tot_requests             0                       # Total number of requests made to the snoop filter.
system.membus.snoop_filter.hit_single_requests            0                       # Number of requests hitting in the snoop filter with a single holder of the requested data.
system.membus.snoop_filter.hit_multi_requests            0                       # Number of requests hitting in the snoop filter with multiple (>1) holders of the requested data.
system.membus.snoop_filter.tot_snoops               0                       # Total number of snoops made to the snoop filter.
system.membus.snoop_filter.hit_single_snoops            0                       # Number of snoops hitting in the snoop filter with a single holder of the requested data.
system.membus.snoop_filter.hit_multi_snoops            0                       # Number of snoops hitting in the snoop filter with multiple (>1) holders of the requested data.
system.membus.pwrStateResidencyTicks::UNDEFINED  16906254000                       # Cumulative time (in ticks) in various power states
system.membus.trans_dist::ReadReq              293563                       # Transaction distribution
system.membus.trans_dist::ReadResp             293562                       # Transaction distribution
system.membus.trans_dist::WriteReq              16868                       # Transaction distribution
system.membus.trans_dist::WriteResp             16868                       # Transaction distribution
system.membus.pkt_count_system.cpu.icache_port::system.mem_ctrl.port       476327                       # Packet count per connected master and slave (bytes)
system.membus.pkt_count_system.cpu.icache_port::total       476327                       # Packet count per connected master and slave (bytes)
system.membus.pkt_count_system.cpu.dcache_port::system.mem_ctrl.port       144534                       # Packet count per connected master and slave (bytes)
system.membus.pkt_count_system.cpu.dcache_port::total       144534                       # Packet count per connected master and slave (bytes)
system.membus.pkt_count::total                 620861                       # Packet count per connected master and slave (bytes)
system.membus.pkt_size_system.cpu.icache_port::system.mem_ctrl.port      1905304                       # Cumulative packet size per connected master and slave (bytes)
system.membus.pkt_size_system.cpu.icache_port::total      1905304                       # Cumulative packet size per connected master and slave (bytes)
system.membus.pkt_size_system.cpu.dcache_port::system.mem_ctrl.port       396311                       # Cumulative packet size per connected master and slave (bytes)
system.membus.pkt_size_system.cpu.dcache_port::total       396311                       # Cumulative packet size per connected master and slave (bytes)
system.membus.pkt_size::total                 2301615                       # Cumulative packet size per connected master and slave (bytes)
system.membus.snoops                                0                       # Total snoops (count)
system.membus.snoopTraffic                          0                       # Total snoop traffic (bytes)
system.membus.snoop_fanout::samples            310431                       # Request fanout histogram
system.membus.snoop_fanout::mean                    0                       # Request fanout histogram
system.membus.snoop_fanout::stdev                   0                       # Request fanout histogram
system.membus.snoop_fanout::underflows              0      0.00%      0.00% # Request fanout histogram
system.membus.snoop_fanout::0                  310431    100.00%    100.00% # Request fanout histogram
system.membus.snoop_fanout::1                       0      0.00%    100.00% # Request fanout histogram
system.membus.snoop_fanout::overflows               0      0.00%    100.00% # Request fanout histogram
system.membus.snoop_fanout::min_value               0                       # Request fanout histogram
system.membus.snoop_fanout::max_value               0                       # Request fanout histogram
system.membus.snoop_fanout::total              310431                       # Request fanout histogram
system.membus.reqLayer2.occupancy           130919600                       # Layer occupancy (ticks)
system.membus.reqLayer2.utilization               0.8                       # Layer utilization (%)
system.membus.respLayer0.occupancy          192758766                       # Layer occupancy (ticks)
system.membus.respLayer0.utilization              1.1                       # Layer utilization (%)
system.membus.respLayer1.occupancy           53703300                       # Layer occupancy (ticks)
system.membus.respLayer1.utilization              0.3                       # Layer utilization (%)

---------- End Simulation Statistics   ----------
