
---------- Begin Simulation Statistics ----------
sim_seconds                                  0.134218                       # Number of seconds simulated
sim_ticks                                134217669000                       # Number of ticks simulated
final_tick                               134217669000                       # Number of ticks from beginning of simulation (restored from checkpoints and never reset)
sim_freq                                 1000000000000                       # Frequency of simulated ticks
host_inst_rate                                 218448                       # Simulator instruction rate (inst/s)
host_op_rate                                   375741                       # Simulator op (including micro ops) rate (op/s)
host_tick_rate                              614663688                       # Simulator tick rate (ticks/s)
host_mem_usage                                 685836                       # Number of bytes of host memory used
host_seconds                                   218.36                       # Real time elapsed on the host
sim_insts                                    47700244                       # Number of instructions simulated
sim_ops                                      82046706                       # Number of ops (including micro ops) simulated
system.clk_domain.voltage_domain.voltage            1                       # Voltage in Volts
system.clk_domain.clock                          1000                       # Clock period in ticks
system.mem_ctrl.pwrStateResidencyTicks::UNDEFINED 134217669000                       # Cumulative time (in ticks) in various power states
system.mem_ctrl.bytes_read::cpu.inst            74368                       # Number of bytes read from this memory
system.mem_ctrl.bytes_read::cpu.data          4159680                       # Number of bytes read from this memory
system.mem_ctrl.bytes_read::total             4234048                       # Number of bytes read from this memory
system.mem_ctrl.bytes_inst_read::cpu.inst        74368                       # Number of instructions bytes read from this memory
system.mem_ctrl.bytes_inst_read::total          74368                       # Number of instructions bytes read from this memory
system.mem_ctrl.bytes_written::writebacks        35456                       # Number of bytes written to this memory
system.mem_ctrl.bytes_written::total            35456                       # Number of bytes written to this memory
system.mem_ctrl.num_reads::cpu.inst              1162                       # Number of read requests responded to by this memory
system.mem_ctrl.num_reads::cpu.data             64995                       # Number of read requests responded to by this memory
system.mem_ctrl.num_reads::total                66157                       # Number of read requests responded to by this memory
system.mem_ctrl.num_writes::writebacks            554                       # Number of write requests responded to by this memory
system.mem_ctrl.num_writes::total                 554                       # Number of write requests responded to by this memory
system.mem_ctrl.bw_read::cpu.inst              554085                       # Total read bandwidth from this memory (bytes/s)
system.mem_ctrl.bw_read::cpu.data            30992045                       # Total read bandwidth from this memory (bytes/s)
system.mem_ctrl.bw_read::total               31546130                       # Total read bandwidth from this memory (bytes/s)
system.mem_ctrl.bw_inst_read::cpu.inst         554085                       # Instruction read bandwidth from this memory (bytes/s)
system.mem_ctrl.bw_inst_read::total            554085                       # Instruction read bandwidth from this memory (bytes/s)
system.mem_ctrl.bw_write::writebacks           264168                       # Write bandwidth from this memory (bytes/s)
system.mem_ctrl.bw_write::total                264168                       # Write bandwidth from this memory (bytes/s)
system.mem_ctrl.bw_total::writebacks           264168                       # Total bandwidth to/from this memory (bytes/s)
system.mem_ctrl.bw_total::cpu.inst             554085                       # Total bandwidth to/from this memory (bytes/s)
system.mem_ctrl.bw_total::cpu.data           30992045                       # Total bandwidth to/from this memory (bytes/s)
system.mem_ctrl.bw_total::total              31810298                       # Total bandwidth to/from this memory (bytes/s)
system.mem_ctrl.readReqs                        66157                       # Number of read requests accepted
system.mem_ctrl.writeReqs                         554                       # Number of write requests accepted
system.mem_ctrl.readBursts                      66157                       # Number of DRAM read bursts, including those serviced by the write queue
system.mem_ctrl.writeBursts                       554                       # Number of DRAM write bursts, including those merged in the write queue
system.mem_ctrl.bytesReadDRAM                 4230016                       # Total number of bytes read from DRAM
system.mem_ctrl.bytesReadWrQ                     4032                       # Total number of bytes read from write queue
system.mem_ctrl.bytesWritten                    30592                       # Total number of bytes written to DRAM
system.mem_ctrl.bytesReadSys                  4234048                       # Total read bytes from the system interface side
system.mem_ctrl.bytesWrittenSys                 35456                       # Total written bytes from the system interface side
system.mem_ctrl.servicedByWrQ                      63                       # Number of DRAM read bursts serviced by the write queue
system.mem_ctrl.mergedWrBursts                     55                       # Number of DRAM write bursts merged with an existing one
system.mem_ctrl.neitherReadNorWriteReqs             0                       # Number of requests that are neither read nor write
system.mem_ctrl.perBankRdBursts::0               4216                       # Per bank write bursts
system.mem_ctrl.perBankRdBursts::1               4207                       # Per bank write bursts
system.mem_ctrl.perBankRdBursts::2               4178                       # Per bank write bursts
system.mem_ctrl.perBankRdBursts::3               4125                       # Per bank write bursts
system.mem_ctrl.perBankRdBursts::4               4260                       # Per bank write bursts
system.mem_ctrl.perBankRdBursts::5               4266                       # Per bank write bursts
system.mem_ctrl.perBankRdBursts::6               4262                       # Per bank write bursts
system.mem_ctrl.perBankRdBursts::7               4134                       # Per bank write bursts
system.mem_ctrl.perBankRdBursts::8               4062                       # Per bank write bursts
system.mem_ctrl.perBankRdBursts::9               4143                       # Per bank write bursts
system.mem_ctrl.perBankRdBursts::10              4208                       # Per bank write bursts
system.mem_ctrl.perBankRdBursts::11              4095                       # Per bank write bursts
system.mem_ctrl.perBankRdBursts::12              3879                       # Per bank write bursts
system.mem_ctrl.perBankRdBursts::13              3916                       # Per bank write bursts
system.mem_ctrl.perBankRdBursts::14              3979                       # Per bank write bursts
system.mem_ctrl.perBankRdBursts::15              4164                       # Per bank write bursts
system.mem_ctrl.perBankWrBursts::0                 26                       # Per bank write bursts
system.mem_ctrl.perBankWrBursts::1                 31                       # Per bank write bursts
system.mem_ctrl.perBankWrBursts::2                  0                       # Per bank write bursts
system.mem_ctrl.perBankWrBursts::3                  3                       # Per bank write bursts
system.mem_ctrl.perBankWrBursts::4                 48                       # Per bank write bursts
system.mem_ctrl.perBankWrBursts::5                 84                       # Per bank write bursts
system.mem_ctrl.perBankWrBursts::6                 80                       # Per bank write bursts
system.mem_ctrl.perBankWrBursts::7                 55                       # Per bank write bursts
system.mem_ctrl.perBankWrBursts::8                  1                       # Per bank write bursts
system.mem_ctrl.perBankWrBursts::9                 38                       # Per bank write bursts
system.mem_ctrl.perBankWrBursts::10                62                       # Per bank write bursts
system.mem_ctrl.perBankWrBursts::11                11                       # Per bank write bursts
system.mem_ctrl.perBankWrBursts::12                 2                       # Per bank write bursts
system.mem_ctrl.perBankWrBursts::13                 0                       # Per bank write bursts
system.mem_ctrl.perBankWrBursts::14                21                       # Per bank write bursts
system.mem_ctrl.perBankWrBursts::15                16                       # Per bank write bursts
system.mem_ctrl.numRdRetry                          0                       # Number of times read queue was full causing retry
system.mem_ctrl.numWrRetry                          0                       # Number of times write queue was full causing retry
system.mem_ctrl.totGap                   134217557000                       # Total gap between requests
system.mem_ctrl.readPktSize::0                      0                       # Read request sizes (log2)
system.mem_ctrl.readPktSize::1                      0                       # Read request sizes (log2)
system.mem_ctrl.readPktSize::2                      0                       # Read request sizes (log2)
system.mem_ctrl.readPktSize::3                      0                       # Read request sizes (log2)
system.mem_ctrl.readPktSize::4                      0                       # Read request sizes (log2)
system.mem_ctrl.readPktSize::5                      0                       # Read request sizes (log2)
system.mem_ctrl.readPktSize::6                  66157                       # Read request sizes (log2)
system.mem_ctrl.writePktSize::0                     0                       # Write request sizes (log2)
system.mem_ctrl.writePktSize::1                     0                       # Write request sizes (log2)
system.mem_ctrl.writePktSize::2                     0                       # Write request sizes (log2)
system.mem_ctrl.writePktSize::3                     0                       # Write request sizes (log2)
system.mem_ctrl.writePktSize::4                     0                       # Write request sizes (log2)
system.mem_ctrl.writePktSize::5                     0                       # Write request sizes (log2)
system.mem_ctrl.writePktSize::6                   554                       # Write request sizes (log2)
system.mem_ctrl.rdQLenPdf::0                    65851                       # What read queue length does an incoming req see
system.mem_ctrl.rdQLenPdf::1                      232                       # What read queue length does an incoming req see
system.mem_ctrl.rdQLenPdf::2                       11                       # What read queue length does an incoming req see
system.mem_ctrl.rdQLenPdf::3                        0                       # What read queue length does an incoming req see
system.mem_ctrl.rdQLenPdf::4                        0                       # What read queue length does an incoming req see
system.mem_ctrl.rdQLenPdf::5                        0                       # What read queue length does an incoming req see
system.mem_ctrl.rdQLenPdf::6                        0                       # What read queue length does an incoming req see
system.mem_ctrl.rdQLenPdf::7                        0                       # What read queue length does an incoming req see
system.mem_ctrl.rdQLenPdf::8                        0                       # What read queue length does an incoming req see
system.mem_ctrl.rdQLenPdf::9                        0                       # What read queue length does an incoming req see
system.mem_ctrl.rdQLenPdf::10                       0                       # What read queue length does an incoming req see
system.mem_ctrl.rdQLenPdf::11                       0                       # What read queue length does an incoming req see
system.mem_ctrl.rdQLenPdf::12                       0                       # What read queue length does an incoming req see
system.mem_ctrl.rdQLenPdf::13                       0                       # What read queue length does an incoming req see
system.mem_ctrl.rdQLenPdf::14                       0                       # What read queue length does an incoming req see
system.mem_ctrl.rdQLenPdf::15                       0                       # What read queue length does an incoming req see
system.mem_ctrl.rdQLenPdf::16                       0                       # What read queue length does an incoming req see
system.mem_ctrl.rdQLenPdf::17                       0                       # What read queue length does an incoming req see
system.mem_ctrl.rdQLenPdf::18                       0                       # What read queue length does an incoming req see
system.mem_ctrl.rdQLenPdf::19                       0                       # What read queue length does an incoming req see
system.mem_ctrl.rdQLenPdf::20                       0                       # What read queue length does an incoming req see
system.mem_ctrl.rdQLenPdf::21                       0                       # What read queue length does an incoming req see
system.mem_ctrl.rdQLenPdf::22                       0                       # What read queue length does an incoming req see
system.mem_ctrl.rdQLenPdf::23                       0                       # What read queue length does an incoming req see
system.mem_ctrl.rdQLenPdf::24                       0                       # What read queue length does an incoming req see
system.mem_ctrl.rdQLenPdf::25                       0                       # What read queue length does an incoming req see
system.mem_ctrl.rdQLenPdf::26                       0                       # What read queue length does an incoming req see
system.mem_ctrl.rdQLenPdf::27                       0                       # What read queue length does an incoming req see
system.mem_ctrl.rdQLenPdf::28                       0                       # What read queue length does an incoming req see
system.mem_ctrl.rdQLenPdf::29                       0                       # What read queue length does an incoming req see
system.mem_ctrl.rdQLenPdf::30                       0                       # What read queue length does an incoming req see
system.mem_ctrl.rdQLenPdf::31                       0                       # What read queue length does an incoming req see
system.mem_ctrl.wrQLenPdf::0                        1                       # What write queue length does an incoming req see
system.mem_ctrl.wrQLenPdf::1                        1                       # What write queue length does an incoming req see
system.mem_ctrl.wrQLenPdf::2                        1                       # What write queue length does an incoming req see
system.mem_ctrl.wrQLenPdf::3                        1                       # What write queue length does an incoming req see
system.mem_ctrl.wrQLenPdf::4                        1                       # What write queue length does an incoming req see
system.mem_ctrl.wrQLenPdf::5                        1                       # What write queue length does an incoming req see
system.mem_ctrl.wrQLenPdf::6                        1                       # What write queue length does an incoming req see
system.mem_ctrl.wrQLenPdf::7                        1                       # What write queue length does an incoming req see
system.mem_ctrl.wrQLenPdf::8                        1                       # What write queue length does an incoming req see
system.mem_ctrl.wrQLenPdf::9                        1                       # What write queue length does an incoming req see
system.mem_ctrl.wrQLenPdf::10                       1                       # What write queue length does an incoming req see
system.mem_ctrl.wrQLenPdf::11                       1                       # What write queue length does an incoming req see
system.mem_ctrl.wrQLenPdf::12                       1                       # What write queue length does an incoming req see
system.mem_ctrl.wrQLenPdf::13                       1                       # What write queue length does an incoming req see
system.mem_ctrl.wrQLenPdf::14                       1                       # What write queue length does an incoming req see
system.mem_ctrl.wrQLenPdf::15                      16                       # What write queue length does an incoming req see
system.mem_ctrl.wrQLenPdf::16                      16                       # What write queue length does an incoming req see
system.mem_ctrl.wrQLenPdf::17                      29                       # What write queue length does an incoming req see
system.mem_ctrl.wrQLenPdf::18                      29                       # What write queue length does an incoming req see
system.mem_ctrl.wrQLenPdf::19                      29                       # What write queue length does an incoming req see
system.mem_ctrl.wrQLenPdf::20                      29                       # What write queue length does an incoming req see
system.mem_ctrl.wrQLenPdf::21                      28                       # What write queue length does an incoming req see
system.mem_ctrl.wrQLenPdf::22                      28                       # What write queue length does an incoming req see
system.mem_ctrl.wrQLenPdf::23                      28                       # What write queue length does an incoming req see
system.mem_ctrl.wrQLenPdf::24                      28                       # What write queue length does an incoming req see
system.mem_ctrl.wrQLenPdf::25                      28                       # What write queue length does an incoming req see
system.mem_ctrl.wrQLenPdf::26                      28                       # What write queue length does an incoming req see
system.mem_ctrl.wrQLenPdf::27                      28                       # What write queue length does an incoming req see
system.mem_ctrl.wrQLenPdf::28                      28                       # What write queue length does an incoming req see
system.mem_ctrl.wrQLenPdf::29                      28                       # What write queue length does an incoming req see
system.mem_ctrl.wrQLenPdf::30                      28                       # What write queue length does an incoming req see
system.mem_ctrl.wrQLenPdf::31                      28                       # What write queue length does an incoming req see
system.mem_ctrl.wrQLenPdf::32                      28                       # What write queue length does an incoming req see
system.mem_ctrl.wrQLenPdf::33                       0                       # What write queue length does an incoming req see
system.mem_ctrl.wrQLenPdf::34                       0                       # What write queue length does an incoming req see
system.mem_ctrl.wrQLenPdf::35                       0                       # What write queue length does an incoming req see
system.mem_ctrl.wrQLenPdf::36                       0                       # What write queue length does an incoming req see
system.mem_ctrl.wrQLenPdf::37                       0                       # What write queue length does an incoming req see
system.mem_ctrl.wrQLenPdf::38                       0                       # What write queue length does an incoming req see
system.mem_ctrl.wrQLenPdf::39                       0                       # What write queue length does an incoming req see
system.mem_ctrl.wrQLenPdf::40                       0                       # What write queue length does an incoming req see
system.mem_ctrl.wrQLenPdf::41                       0                       # What write queue length does an incoming req see
system.mem_ctrl.wrQLenPdf::42                       0                       # What write queue length does an incoming req see
system.mem_ctrl.wrQLenPdf::43                       0                       # What write queue length does an incoming req see
system.mem_ctrl.wrQLenPdf::44                       0                       # What write queue length does an incoming req see
system.mem_ctrl.wrQLenPdf::45                       0                       # What write queue length does an incoming req see
system.mem_ctrl.wrQLenPdf::46                       0                       # What write queue length does an incoming req see
system.mem_ctrl.wrQLenPdf::47                       0                       # What write queue length does an incoming req see
system.mem_ctrl.wrQLenPdf::48                       0                       # What write queue length does an incoming req see
system.mem_ctrl.wrQLenPdf::49                       0                       # What write queue length does an incoming req see
system.mem_ctrl.wrQLenPdf::50                       0                       # What write queue length does an incoming req see
system.mem_ctrl.wrQLenPdf::51                       0                       # What write queue length does an incoming req see
system.mem_ctrl.wrQLenPdf::52                       0                       # What write queue length does an incoming req see
system.mem_ctrl.wrQLenPdf::53                       0                       # What write queue length does an incoming req see
system.mem_ctrl.wrQLenPdf::54                       0                       # What write queue length does an incoming req see
system.mem_ctrl.wrQLenPdf::55                       0                       # What write queue length does an incoming req see
system.mem_ctrl.wrQLenPdf::56                       0                       # What write queue length does an incoming req see
system.mem_ctrl.wrQLenPdf::57                       0                       # What write queue length does an incoming req see
system.mem_ctrl.wrQLenPdf::58                       0                       # What write queue length does an incoming req see
system.mem_ctrl.wrQLenPdf::59                       0                       # What write queue length does an incoming req see
system.mem_ctrl.wrQLenPdf::60                       0                       # What write queue length does an incoming req see
system.mem_ctrl.wrQLenPdf::61                       0                       # What write queue length does an incoming req see
system.mem_ctrl.wrQLenPdf::62                       0                       # What write queue length does an incoming req see
system.mem_ctrl.wrQLenPdf::63                       0                       # What write queue length does an incoming req see
system.mem_ctrl.bytesPerActivate::samples         5107                       # Bytes accessed per row activation
system.mem_ctrl.bytesPerActivate::mean     833.842177                       # Bytes accessed per row activation
system.mem_ctrl.bytesPerActivate::gmean    690.097684                       # Bytes accessed per row activation
system.mem_ctrl.bytesPerActivate::stdev    326.230016                       # Bytes accessed per row activation
system.mem_ctrl.bytesPerActivate::0-127           288      5.64%      5.64% # Bytes accessed per row activation
system.mem_ctrl.bytesPerActivate::128-255          328      6.42%     12.06% # Bytes accessed per row activation
system.mem_ctrl.bytesPerActivate::256-383          208      4.07%     16.13% # Bytes accessed per row activation
system.mem_ctrl.bytesPerActivate::384-511          114      2.23%     18.37% # Bytes accessed per row activation
system.mem_ctrl.bytesPerActivate::512-639          173      3.39%     21.75% # Bytes accessed per row activation
system.mem_ctrl.bytesPerActivate::640-767           85      1.66%     23.42% # Bytes accessed per row activation
system.mem_ctrl.bytesPerActivate::768-895          141      2.76%     26.18% # Bytes accessed per row activation
system.mem_ctrl.bytesPerActivate::896-1023          629     12.32%     38.50% # Bytes accessed per row activation
system.mem_ctrl.bytesPerActivate::1024-1151         3141     61.50%    100.00% # Bytes accessed per row activation
system.mem_ctrl.bytesPerActivate::total          5107                       # Bytes accessed per row activation
system.mem_ctrl.rdPerTurnAround::samples           28                       # Reads before turning the bus around for writes
system.mem_ctrl.rdPerTurnAround::mean     2360.285714                       # Reads before turning the bus around for writes
system.mem_ctrl.rdPerTurnAround::gmean      39.875975                       # Reads before turning the bus around for writes
system.mem_ctrl.rdPerTurnAround::stdev   11423.396803                       # Reads before turning the bus around for writes
system.mem_ctrl.rdPerTurnAround::0-2047            26     92.86%     92.86% # Reads before turning the bus around for writes
system.mem_ctrl.rdPerTurnAround::2048-4095            1      3.57%     96.43% # Reads before turning the bus around for writes
system.mem_ctrl.rdPerTurnAround::59392-61439            1      3.57%    100.00% # Reads before turning the bus around for writes
system.mem_ctrl.rdPerTurnAround::total             28                       # Reads before turning the bus around for writes
system.mem_ctrl.wrPerTurnAround::samples           28                       # Writes before turning the bus around for reads
system.mem_ctrl.wrPerTurnAround::mean       17.071429                       # Writes before turning the bus around for reads
system.mem_ctrl.wrPerTurnAround::gmean      17.042100                       # Writes before turning the bus around for reads
system.mem_ctrl.wrPerTurnAround::stdev       1.015749                       # Writes before turning the bus around for reads
system.mem_ctrl.wrPerTurnAround::16                13     46.43%     46.43% # Writes before turning the bus around for reads
system.mem_ctrl.wrPerTurnAround::18                15     53.57%    100.00% # Writes before turning the bus around for reads
system.mem_ctrl.wrPerTurnAround::total             28                       # Writes before turning the bus around for reads
system.mem_ctrl.totQLat                    2183646822                       # Total ticks spent queuing
system.mem_ctrl.totMemAccLat               3296801970                       # Total ticks spent from burst creation until serviced by the DRAM
system.mem_ctrl.totBusLat                   247984688                       # Total ticks spent in databus transfers
system.mem_ctrl.avgQLat                      33038.50                       # Average queueing delay per DRAM burst
system.mem_ctrl.avgBusLat                     3752.00                       # Average bus latency per DRAM burst
system.mem_ctrl.avgMemAccLat                 49880.50                       # Average memory access latency per DRAM burst
system.mem_ctrl.avgRdBW                         31.52                       # Average DRAM read bandwidth in MiByte/s
system.mem_ctrl.avgWrBW                          0.23                       # Average achieved write bandwidth in MiByte/s
system.mem_ctrl.avgRdBWSys                      31.55                       # Average system read bandwidth in MiByte/s
system.mem_ctrl.avgWrBWSys                       0.26                       # Average system write bandwidth in MiByte/s
system.mem_ctrl.peakBW                       17057.00                       # Theoretical peak bandwidth in MiByte/s
system.mem_ctrl.busUtil                          0.19                       # Data bus utilization in percentage
system.mem_ctrl.busUtilRead                      0.18                       # Data bus utilization in percentage for reads
system.mem_ctrl.busUtilWrite                     0.00                       # Data bus utilization in percentage for writes
system.mem_ctrl.avgRdQLen                        1.00                       # Average read queue length when enqueuing
system.mem_ctrl.avgWrQLen                       19.61                       # Average write queue length when enqueuing
system.mem_ctrl.readRowHits                     61064                       # Number of row buffer hits during reads
system.mem_ctrl.writeRowHits                      394                       # Number of row buffer hits during writes
system.mem_ctrl.readRowHitRate                  92.39                       # Row buffer hit rate for reads
system.mem_ctrl.writeRowHitRate                 78.96                       # Row buffer hit rate for writes
system.mem_ctrl.avgGap                     2011925.42                       # Average gap between requests
system.mem_ctrl.pageHitRate                     92.29                       # Row buffer hit rate, read and write combined
system.mem_ctrl_0.actEnergy              28014202.944000                       # Energy for activate commands per rank (pJ)
system.mem_ctrl_0.preEnergy              13806722.160000                       # Energy for precharge commands per rank (pJ)
system.mem_ctrl_0.readEnergy             222700230.144000                       # Energy for read commands per rank (pJ)
system.mem_ctrl_0.writeEnergy            1663681.824000                       # Energy for write commands per rank (pJ)
system.mem_ctrl_0.refreshEnergy          2386985675.424000                       # Energy for refresh commands per rank (pJ)
system.mem_ctrl_0.actBackEnergy          902401219.104000                       # Energy for active background per rank (pJ)
system.mem_ctrl_0.preBackEnergy          155928366.216000                       # Energy for precharge background per rank (pJ)
system.mem_ctrl_0.actPowerDownEnergy     7840158879.167999                       # Energy for active power-down per rank (pJ)
system.mem_ctrl_0.prePowerDownEnergy     200525482.416000                       # Energy for precharge power-down per rank (pJ)
system.mem_ctrl_0.selfRefreshEnergy      29019597238.463997                       # Energy for self refresh per rank (pJ)
system.mem_ctrl_0.totalEnergy            40854120778.631996                       # Total energy per rank (pJ)
system.mem_ctrl_0.averagePower             304.387052                       # Core power per rank (mW)
system.mem_ctrl_0.totalIdleTime          131997823418                       # Total Idle time Per DRAM Rank
system.mem_ctrl_0.memoryStateTime::IDLE     427134000                       # Time in different power states
system.mem_ctrl_0.memoryStateTime::REF      972206000                       # Time in different power states
system.mem_ctrl_0.memoryStateTime::SREF  116760831520                       # Time in different power states
system.mem_ctrl_0.memoryStateTime::PRE_PDN    388617058                       # Time in different power states
system.mem_ctrl_0.memoryStateTime::ACT      820107424                       # Time in different power states
system.mem_ctrl_0.memoryStateTime::ACT_PDN  14848772998                       # Time in different power states
system.mem_ctrl_1.actEnergy              25864937.280000                       # Energy for activate commands per rank (pJ)
system.mem_ctrl_1.preEnergy              12751066.944000                       # Energy for precharge commands per rank (pJ)
system.mem_ctrl_1.readEnergy             214744759.488000                       # Energy for read commands per rank (pJ)
system.mem_ctrl_1.writeEnergy            768244.512000                       # Energy for write commands per rank (pJ)
system.mem_ctrl_1.refreshEnergy          2337995421.216000                       # Energy for refresh commands per rank (pJ)
system.mem_ctrl_1.actBackEnergy          874158294.240000                       # Energy for active background per rank (pJ)
system.mem_ctrl_1.preBackEnergy          156275703.864000                       # Energy for precharge background per rank (pJ)
system.mem_ctrl_1.actPowerDownEnergy     7604877277.535999                       # Energy for active power-down per rank (pJ)
system.mem_ctrl_1.prePowerDownEnergy     223925333.184000                       # Energy for precharge power-down per rank (pJ)
system.mem_ctrl_1.selfRefreshEnergy      29116547777.855999                       # Energy for self refresh per rank (pJ)
system.mem_ctrl_1.totalEnergy            40649032248.888000                       # Total energy per rank (pJ)
system.mem_ctrl_1.averagePower             302.859023                       # Core power per rank (mW)
system.mem_ctrl_1.totalIdleTime          132053199832                       # Total Idle time Per DRAM Rank
system.mem_ctrl_1.memoryStateTime::IDLE     427496000                       # Time in different power states
system.mem_ctrl_1.memoryStateTime::REF      952326000                       # Time in different power states
system.mem_ctrl_1.memoryStateTime::SREF  117216152390                       # Time in different power states
system.mem_ctrl_1.memoryStateTime::PRE_PDN    433966036                       # Time in different power states
system.mem_ctrl_1.memoryStateTime::ACT      784582010                       # Time in different power states
system.mem_ctrl_1.memoryStateTime::ACT_PDN  14403146564                       # Time in different power states
system.pwrStateResidencyTicks::UNDEFINED 134217669000                       # Cumulative time (in ticks) in various power states
system.cpu.branchPred.lookups                      82                       # Number of BP lookups
system.cpu.branchPred.condPredicted                82                       # Number of conditional branches predicted
system.cpu.branchPred.condIncorrect                32                       # Number of conditional branches incorrect
system.cpu.branchPred.BTBLookups                   37                       # Number of BTB lookups
system.cpu.branchPred.BTBHits                       0                       # Number of BTB hits
system.cpu.branchPred.BTBCorrect                    0                       # Number of correct BTB predictions (this stat may not work properly.
system.cpu.branchPred.BTBHitPct              0.000000                       # BTB Hit Percentage
system.cpu.branchPred.usedRAS                       0                       # Number of times the RAS was used to get a target.
system.cpu.branchPred.RASInCorrect                  0                       # Number of incorrect RAS predictions.
system.cpu.branchPred.indirectLookups              37                       # Number of indirect predictor lookups.
system.cpu.branchPred.indirectHits                  0                       # Number of indirect target hits.
system.cpu.branchPred.indirectMisses               37                       # Number of indirect misses.
system.cpu.branchPredindirectMispredicted           12                       # Number of mispredicted indirect branches.
system.cpu.dtb.walker.pwrStateResidencyTicks::UNDEFINED 134217669000                       # Cumulative time (in ticks) in various power states
system.cpu.dtb.rdAccesses                    26909322                       # TLB accesses on read requests
system.cpu.dtb.wrAccesses                     7334873                       # TLB accesses on write requests
system.cpu.dtb.rdMisses                          2851                       # TLB misses on read requests
system.cpu.dtb.wrMisses                        116849                       # TLB misses on write requests
system.cpu.apic_clk_domain.clock                16000                       # Clock period in ticks
system.cpu.interrupts.pwrStateResidencyTicks::UNDEFINED 134217669000                       # Cumulative time (in ticks) in various power states
system.cpu.itb.walker.pwrStateResidencyTicks::UNDEFINED 134217669000                       # Cumulative time (in ticks) in various power states
system.cpu.itb.rdAccesses                           0                       # TLB accesses on read requests
system.cpu.itb.wrAccesses                    18313193                       # TLB accesses on write requests
system.cpu.itb.rdMisses                             0                       # TLB misses on read requests
system.cpu.itb.wrMisses                            90                       # TLB misses on write requests
system.cpu.workload.numSyscalls                    33                       # Number of system calls
system.cpu.pwrStateResidencyTicks::ON    134217669000                       # Cumulative time (in ticks) in various power states
system.cpu.numCycles                        134217669                       # number of cpu cycles simulated
system.cpu.numWorkItemsStarted                      0                       # number of work items this cpu started
system.cpu.numWorkItemsCompleted                    0                       # number of work items this cpu completed
system.cpu.committedInsts                    47700244                       # Number of instructions committed
system.cpu.committedOps                      82046706                       # Number of ops (including micro ops) committed
system.cpu.discardedOps                      13326313                       # Number of ops (including micro ops) which were discarded before commit
system.cpu.numFetchSuspends                         0                       # Number of times Execute suspended instruction fetching
system.cpu.cpi                               2.813773                       # CPI: cycles per instruction
system.cpu.ipc                               0.355395                       # IPC: instructions per cycle
system.cpu.op_class_0::No_OpClass                1287      0.00%      0.00% # Class of committed instruction
system.cpu.op_class_0::IntAlu                50852257     61.98%     61.98% # Class of committed instruction
system.cpu.op_class_0::IntMult                   1192      0.00%     61.98% # Class of committed instruction
system.cpu.op_class_0::IntDiv                    1131      0.00%     61.98% # Class of committed instruction
system.cpu.op_class_0::FloatAdd                  2227      0.00%     61.99% # Class of committed instruction
system.cpu.op_class_0::FloatCmp                     0      0.00%     61.99% # Class of committed instruction
system.cpu.op_class_0::FloatCvt                     0      0.00%     61.99% # Class of committed instruction
system.cpu.op_class_0::FloatMult                    0      0.00%     61.99% # Class of committed instruction
system.cpu.op_class_0::FloatMultAcc                 0      0.00%     61.99% # Class of committed instruction
system.cpu.op_class_0::FloatDiv                     0      0.00%     61.99% # Class of committed instruction
system.cpu.op_class_0::FloatMisc                    0      0.00%     61.99% # Class of committed instruction
system.cpu.op_class_0::FloatSqrt                    0      0.00%     61.99% # Class of committed instruction
system.cpu.op_class_0::SimdAdd                      0      0.00%     61.99% # Class of committed instruction
system.cpu.op_class_0::SimdAddAcc                   0      0.00%     61.99% # Class of committed instruction
system.cpu.op_class_0::SimdAlu                      0      0.00%     61.99% # Class of committed instruction
system.cpu.op_class_0::SimdCmp                      0      0.00%     61.99% # Class of committed instruction
system.cpu.op_class_0::SimdCvt                      0      0.00%     61.99% # Class of committed instruction
system.cpu.op_class_0::SimdMisc                     0      0.00%     61.99% # Class of committed instruction
system.cpu.op_class_0::SimdMult                     0      0.00%     61.99% # Class of committed instruction
system.cpu.op_class_0::SimdMultAcc                  0      0.00%     61.99% # Class of committed instruction
system.cpu.op_class_0::SimdShift                    0      0.00%     61.99% # Class of committed instruction
system.cpu.op_class_0::SimdShiftAcc                 0      0.00%     61.99% # Class of committed instruction
system.cpu.op_class_0::SimdSqrt                     0      0.00%     61.99% # Class of committed instruction
system.cpu.op_class_0::SimdFloatAdd                 0      0.00%     61.99% # Class of committed instruction
system.cpu.op_class_0::SimdFloatAlu                 0      0.00%     61.99% # Class of committed instruction
system.cpu.op_class_0::SimdFloatCmp                 0      0.00%     61.99% # Class of committed instruction
system.cpu.op_class_0::SimdFloatCvt                 0      0.00%     61.99% # Class of committed instruction
system.cpu.op_class_0::SimdFloatDiv                 0      0.00%     61.99% # Class of committed instruction
system.cpu.op_class_0::SimdFloatMisc                0      0.00%     61.99% # Class of committed instruction
system.cpu.op_class_0::SimdFloatMult                0      0.00%     61.99% # Class of committed instruction
system.cpu.op_class_0::SimdFloatMultAcc             0      0.00%     61.99% # Class of committed instruction
system.cpu.op_class_0::SimdFloatSqrt                0      0.00%     61.99% # Class of committed instruction
system.cpu.op_class_0::MemRead               23853209     29.07%     91.06% # Class of committed instruction
system.cpu.op_class_0::MemWrite               7334237      8.94%    100.00% # Class of committed instruction
system.cpu.op_class_0::FloatMemRead               782      0.00%    100.00% # Class of committed instruction
system.cpu.op_class_0::FloatMemWrite              384      0.00%    100.00% # Class of committed instruction
system.cpu.op_class_0::IprAccess                    0      0.00%    100.00% # Class of committed instruction
system.cpu.op_class_0::InstPrefetch                 0      0.00%    100.00% # Class of committed instruction
system.cpu.op_class_0::total                 82046706                       # Class of committed instruction
system.cpu.tickCycles                       126542305                       # Number of cycles that the object actually ticked
system.cpu.idleCycles                         7675364                       # Total number of cycles that the object has spent stopped
system.cpu.dcache.tags.pwrStateResidencyTicks::UNDEFINED 134217669000                       # Cumulative time (in ticks) in various power states
system.cpu.dcache.tags.replacements           1287860                       # number of replacements
system.cpu.dcache.tags.tagsinuse          1022.507101                       # Cycle average of tags in use
system.cpu.dcache.tags.total_refs            32888193                       # Total number of references to valid blocks.
system.cpu.dcache.tags.sampled_refs           1288884                       # Sample count of references to valid blocks.
system.cpu.dcache.tags.avg_refs             25.516798                       # Average number of references to valid blocks.
system.cpu.dcache.tags.warmup_cycle         639323000                       # Cycle when the warmup percentage was hit.
system.cpu.dcache.tags.occ_blocks::cpu.data  1022.507101                       # Average occupied blocks per requestor
system.cpu.dcache.tags.occ_percent::cpu.data     0.998542                       # Average percentage of cache occupancy
system.cpu.dcache.tags.occ_percent::total     0.998542                       # Average percentage of cache occupancy
system.cpu.dcache.tags.occ_task_id_blocks::1024         1024                       # Occupied blocks per task id
system.cpu.dcache.tags.age_task_id_blocks_1024::0           25                       # Occupied blocks per task id
system.cpu.dcache.tags.age_task_id_blocks_1024::1          197                       # Occupied blocks per task id
system.cpu.dcache.tags.age_task_id_blocks_1024::2          802                       # Occupied blocks per task id
system.cpu.dcache.tags.occ_task_id_percent::1024            1                       # Percentage of cache occupancy per task id
system.cpu.dcache.tags.tag_accesses          35528874                       # Number of tag accesses
system.cpu.dcache.tags.data_accesses         35528874                       # Number of data accesses
system.cpu.dcache.pwrStateResidencyTicks::UNDEFINED 134217669000                       # Cumulative time (in ticks) in various power states
system.cpu.dcache.ReadReq_hits::cpu.data     26832686                       # number of ReadReq hits
system.cpu.dcache.ReadReq_hits::total        26832686                       # number of ReadReq hits
system.cpu.dcache.WriteReq_hits::cpu.data      6055507                       # number of WriteReq hits
system.cpu.dcache.WriteReq_hits::total        6055507                       # number of WriteReq hits
system.cpu.dcache.demand_hits::cpu.data      32888193                       # number of demand (read+write) hits
system.cpu.dcache.demand_hits::total         32888193                       # number of demand (read+write) hits
system.cpu.dcache.overall_hits::cpu.data     32888193                       # number of overall hits
system.cpu.dcache.overall_hits::total        32888193                       # number of overall hits
system.cpu.dcache.ReadReq_misses::cpu.data        72683                       # number of ReadReq misses
system.cpu.dcache.ReadReq_misses::total         72683                       # number of ReadReq misses
system.cpu.dcache.WriteReq_misses::cpu.data      1279114                       # number of WriteReq misses
system.cpu.dcache.WriteReq_misses::total      1279114                       # number of WriteReq misses
system.cpu.dcache.demand_misses::cpu.data      1351797                       # number of demand (read+write) misses
system.cpu.dcache.demand_misses::total        1351797                       # number of demand (read+write) misses
system.cpu.dcache.overall_misses::cpu.data      1351797                       # number of overall misses
system.cpu.dcache.overall_misses::total       1351797                       # number of overall misses
system.cpu.dcache.ReadReq_miss_latency::cpu.data   2050113000                       # number of ReadReq miss cycles
system.cpu.dcache.ReadReq_miss_latency::total   2050113000                       # number of ReadReq miss cycles
system.cpu.dcache.WriteReq_miss_latency::cpu.data  44465336000                       # number of WriteReq miss cycles
system.cpu.dcache.WriteReq_miss_latency::total  44465336000                       # number of WriteReq miss cycles
system.cpu.dcache.demand_miss_latency::cpu.data  46515449000                       # number of demand (read+write) miss cycles
system.cpu.dcache.demand_miss_latency::total  46515449000                       # number of demand (read+write) miss cycles
system.cpu.dcache.overall_miss_latency::cpu.data  46515449000                       # number of overall miss cycles
system.cpu.dcache.overall_miss_latency::total  46515449000                       # number of overall miss cycles
system.cpu.dcache.ReadReq_accesses::cpu.data     26905369                       # number of ReadReq accesses(hits+misses)
system.cpu.dcache.ReadReq_accesses::total     26905369                       # number of ReadReq accesses(hits+misses)
system.cpu.dcache.WriteReq_accesses::cpu.data      7334621                       # number of WriteReq accesses(hits+misses)
system.cpu.dcache.WriteReq_accesses::total      7334621                       # number of WriteReq accesses(hits+misses)
system.cpu.dcache.demand_accesses::cpu.data     34239990                       # number of demand (read+write) accesses
system.cpu.dcache.demand_accesses::total     34239990                       # number of demand (read+write) accesses
system.cpu.dcache.overall_accesses::cpu.data     34239990                       # number of overall (read+write) accesses
system.cpu.dcache.overall_accesses::total     34239990                       # number of overall (read+write) accesses
system.cpu.dcache.ReadReq_miss_rate::cpu.data     0.002701                       # miss rate for ReadReq accesses
system.cpu.dcache.ReadReq_miss_rate::total     0.002701                       # miss rate for ReadReq accesses
system.cpu.dcache.WriteReq_miss_rate::cpu.data     0.174394                       # miss rate for WriteReq accesses
system.cpu.dcache.WriteReq_miss_rate::total     0.174394                       # miss rate for WriteReq accesses
system.cpu.dcache.demand_miss_rate::cpu.data     0.039480                       # miss rate for demand accesses
system.cpu.dcache.demand_miss_rate::total     0.039480                       # miss rate for demand accesses
system.cpu.dcache.overall_miss_rate::cpu.data     0.039480                       # miss rate for overall accesses
system.cpu.dcache.overall_miss_rate::total     0.039480                       # miss rate for overall accesses
system.cpu.dcache.ReadReq_avg_miss_latency::cpu.data 28206.224289                       # average ReadReq miss latency
system.cpu.dcache.ReadReq_avg_miss_latency::total 28206.224289                       # average ReadReq miss latency
system.cpu.dcache.WriteReq_avg_miss_latency::cpu.data 34762.605991                       # average WriteReq miss latency
system.cpu.dcache.WriteReq_avg_miss_latency::total 34762.605991                       # average WriteReq miss latency
system.cpu.dcache.demand_avg_miss_latency::cpu.data 34410.084502                       # average overall miss latency
system.cpu.dcache.demand_avg_miss_latency::total 34410.084502                       # average overall miss latency
system.cpu.dcache.overall_avg_miss_latency::cpu.data 34410.084502                       # average overall miss latency
system.cpu.dcache.overall_avg_miss_latency::total 34410.084502                       # average overall miss latency
system.cpu.dcache.blocked_cycles::no_mshrs            0                       # number of cycles access was blocked
system.cpu.dcache.blocked_cycles::no_targets            0                       # number of cycles access was blocked
system.cpu.dcache.blocked::no_mshrs                 0                       # number of cycles access was blocked
system.cpu.dcache.blocked::no_targets               0                       # number of cycles access was blocked
system.cpu.dcache.avg_blocked_cycles::no_mshrs          nan                       # average number of cycles each access was blocked
system.cpu.dcache.avg_blocked_cycles::no_targets          nan                       # average number of cycles each access was blocked
system.cpu.dcache.writebacks::writebacks      1282891                       # number of writebacks
system.cpu.dcache.writebacks::total           1282891                       # number of writebacks
system.cpu.dcache.ReadReq_mshr_hits::cpu.data           46                       # number of ReadReq MSHR hits
system.cpu.dcache.ReadReq_mshr_hits::total           46                       # number of ReadReq MSHR hits
system.cpu.dcache.WriteReq_mshr_hits::cpu.data        62867                       # number of WriteReq MSHR hits
system.cpu.dcache.WriteReq_mshr_hits::total        62867                       # number of WriteReq MSHR hits
system.cpu.dcache.demand_mshr_hits::cpu.data        62913                       # number of demand (read+write) MSHR hits
system.cpu.dcache.demand_mshr_hits::total        62913                       # number of demand (read+write) MSHR hits
system.cpu.dcache.overall_mshr_hits::cpu.data        62913                       # number of overall MSHR hits
system.cpu.dcache.overall_mshr_hits::total        62913                       # number of overall MSHR hits
system.cpu.dcache.ReadReq_mshr_misses::cpu.data        72637                       # number of ReadReq MSHR misses
system.cpu.dcache.ReadReq_mshr_misses::total        72637                       # number of ReadReq MSHR misses
system.cpu.dcache.WriteReq_mshr_misses::cpu.data      1216247                       # number of WriteReq MSHR misses
system.cpu.dcache.WriteReq_mshr_misses::total      1216247                       # number of WriteReq MSHR misses
system.cpu.dcache.demand_mshr_misses::cpu.data      1288884                       # number of demand (read+write) MSHR misses
system.cpu.dcache.demand_mshr_misses::total      1288884                       # number of demand (read+write) MSHR misses
system.cpu.dcache.overall_mshr_misses::cpu.data      1288884                       # number of overall MSHR misses
system.cpu.dcache.overall_mshr_misses::total      1288884                       # number of overall MSHR misses
system.cpu.dcache.ReadReq_mshr_miss_latency::cpu.data   1902239000                       # number of ReadReq MSHR miss cycles
system.cpu.dcache.ReadReq_mshr_miss_latency::total   1902239000                       # number of ReadReq MSHR miss cycles
system.cpu.dcache.WriteReq_mshr_miss_latency::cpu.data  35555241000                       # number of WriteReq MSHR miss cycles
system.cpu.dcache.WriteReq_mshr_miss_latency::total  35555241000                       # number of WriteReq MSHR miss cycles
system.cpu.dcache.demand_mshr_miss_latency::cpu.data  37457480000                       # number of demand (read+write) MSHR miss cycles
system.cpu.dcache.demand_mshr_miss_latency::total  37457480000                       # number of demand (read+write) MSHR miss cycles
system.cpu.dcache.overall_mshr_miss_latency::cpu.data  37457480000                       # number of overall MSHR miss cycles
system.cpu.dcache.overall_mshr_miss_latency::total  37457480000                       # number of overall MSHR miss cycles
system.cpu.dcache.ReadReq_mshr_miss_rate::cpu.data     0.002700                       # mshr miss rate for ReadReq accesses
system.cpu.dcache.ReadReq_mshr_miss_rate::total     0.002700                       # mshr miss rate for ReadReq accesses
system.cpu.dcache.WriteReq_mshr_miss_rate::cpu.data     0.165823                       # mshr miss rate for WriteReq accesses
system.cpu.dcache.WriteReq_mshr_miss_rate::total     0.165823                       # mshr miss rate for WriteReq accesses
system.cpu.dcache.demand_mshr_miss_rate::cpu.data     0.037643                       # mshr miss rate for demand accesses
system.cpu.dcache.demand_mshr_miss_rate::total     0.037643                       # mshr miss rate for demand accesses
system.cpu.dcache.overall_mshr_miss_rate::cpu.data     0.037643                       # mshr miss rate for overall accesses
system.cpu.dcache.overall_mshr_miss_rate::total     0.037643                       # mshr miss rate for overall accesses
system.cpu.dcache.ReadReq_avg_mshr_miss_latency::cpu.data 26188.292468                       # average ReadReq mshr miss latency
system.cpu.dcache.ReadReq_avg_mshr_miss_latency::total 26188.292468                       # average ReadReq mshr miss latency
system.cpu.dcache.WriteReq_avg_mshr_miss_latency::cpu.data 29233.569333                       # average WriteReq mshr miss latency
system.cpu.dcache.WriteReq_avg_mshr_miss_latency::total 29233.569333                       # average WriteReq mshr miss latency
system.cpu.dcache.demand_avg_mshr_miss_latency::cpu.data 29061.948166                       # average overall mshr miss latency
system.cpu.dcache.demand_avg_mshr_miss_latency::total 29061.948166                       # average overall mshr miss latency
system.cpu.dcache.overall_avg_mshr_miss_latency::cpu.data 29061.948166                       # average overall mshr miss latency
system.cpu.dcache.overall_avg_mshr_miss_latency::total 29061.948166                       # average overall mshr miss latency
system.cpu.icache.tags.pwrStateResidencyTicks::UNDEFINED 134217669000                       # Cumulative time (in ticks) in various power states
system.cpu.icache.tags.replacements               912                       # number of replacements
system.cpu.icache.tags.tagsinuse           464.687718                       # Cycle average of tags in use
system.cpu.icache.tags.total_refs            18311795                       # Total number of references to valid blocks.
system.cpu.icache.tags.sampled_refs              1397                       # Sample count of references to valid blocks.
system.cpu.icache.tags.avg_refs          13107.942019                       # Average number of references to valid blocks.
system.cpu.icache.tags.warmup_cycle                 0                       # Cycle when the warmup percentage was hit.
system.cpu.icache.tags.occ_blocks::cpu.inst   464.687718                       # Average occupied blocks per requestor
system.cpu.icache.tags.occ_percent::cpu.inst     0.907593                       # Average percentage of cache occupancy
system.cpu.icache.tags.occ_percent::total     0.907593                       # Average percentage of cache occupancy
system.cpu.icache.tags.occ_task_id_blocks::1024          485                       # Occupied blocks per task id
system.cpu.icache.tags.age_task_id_blocks_1024::0           69                       # Occupied blocks per task id
system.cpu.icache.tags.age_task_id_blocks_1024::1          156                       # Occupied blocks per task id
system.cpu.icache.tags.age_task_id_blocks_1024::4          260                       # Occupied blocks per task id
system.cpu.icache.tags.occ_task_id_percent::1024     0.947266                       # Percentage of cache occupancy per task id
system.cpu.icache.tags.tag_accesses          18314590                       # Number of tag accesses
system.cpu.icache.tags.data_accesses         18314590                       # Number of data accesses
system.cpu.icache.pwrStateResidencyTicks::UNDEFINED 134217669000                       # Cumulative time (in ticks) in various power states
system.cpu.icache.ReadReq_hits::cpu.inst     18311795                       # number of ReadReq hits
system.cpu.icache.ReadReq_hits::total        18311795                       # number of ReadReq hits
system.cpu.icache.demand_hits::cpu.inst      18311795                       # number of demand (read+write) hits
system.cpu.icache.demand_hits::total         18311795                       # number of demand (read+write) hits
system.cpu.icache.overall_hits::cpu.inst     18311795                       # number of overall hits
system.cpu.icache.overall_hits::total        18311795                       # number of overall hits
system.cpu.icache.ReadReq_misses::cpu.inst         1398                       # number of ReadReq misses
system.cpu.icache.ReadReq_misses::total          1398                       # number of ReadReq misses
system.cpu.icache.demand_misses::cpu.inst         1398                       # number of demand (read+write) misses
system.cpu.icache.demand_misses::total           1398                       # number of demand (read+write) misses
system.cpu.icache.overall_misses::cpu.inst         1398                       # number of overall misses
system.cpu.icache.overall_misses::total          1398                       # number of overall misses
system.cpu.icache.ReadReq_miss_latency::cpu.inst    129617000                       # number of ReadReq miss cycles
system.cpu.icache.ReadReq_miss_latency::total    129617000                       # number of ReadReq miss cycles
system.cpu.icache.demand_miss_latency::cpu.inst    129617000                       # number of demand (read+write) miss cycles
system.cpu.icache.demand_miss_latency::total    129617000                       # number of demand (read+write) miss cycles
system.cpu.icache.overall_miss_latency::cpu.inst    129617000                       # number of overall miss cycles
system.cpu.icache.overall_miss_latency::total    129617000                       # number of overall miss cycles
system.cpu.icache.ReadReq_accesses::cpu.inst     18313193                       # number of ReadReq accesses(hits+misses)
system.cpu.icache.ReadReq_accesses::total     18313193                       # number of ReadReq accesses(hits+misses)
system.cpu.icache.demand_accesses::cpu.inst     18313193                       # number of demand (read+write) accesses
system.cpu.icache.demand_accesses::total     18313193                       # number of demand (read+write) accesses
system.cpu.icache.overall_accesses::cpu.inst     18313193                       # number of overall (read+write) accesses
system.cpu.icache.overall_accesses::total     18313193                       # number of overall (read+write) accesses
system.cpu.icache.ReadReq_miss_rate::cpu.inst     0.000076                       # miss rate for ReadReq accesses
system.cpu.icache.ReadReq_miss_rate::total     0.000076                       # miss rate for ReadReq accesses
system.cpu.icache.demand_miss_rate::cpu.inst     0.000076                       # miss rate for demand accesses
system.cpu.icache.demand_miss_rate::total     0.000076                       # miss rate for demand accesses
system.cpu.icache.overall_miss_rate::cpu.inst     0.000076                       # miss rate for overall accesses
system.cpu.icache.overall_miss_rate::total     0.000076                       # miss rate for overall accesses
system.cpu.icache.ReadReq_avg_miss_latency::cpu.inst 92716.022890                       # average ReadReq miss latency
system.cpu.icache.ReadReq_avg_miss_latency::total 92716.022890                       # average ReadReq miss latency
system.cpu.icache.demand_avg_miss_latency::cpu.inst 92716.022890                       # average overall miss latency
system.cpu.icache.demand_avg_miss_latency::total 92716.022890                       # average overall miss latency
system.cpu.icache.overall_avg_miss_latency::cpu.inst 92716.022890                       # average overall miss latency
system.cpu.icache.overall_avg_miss_latency::total 92716.022890                       # average overall miss latency
system.cpu.icache.blocked_cycles::no_mshrs            0                       # number of cycles access was blocked
system.cpu.icache.blocked_cycles::no_targets            0                       # number of cycles access was blocked
system.cpu.icache.blocked::no_mshrs                 0                       # number of cycles access was blocked
system.cpu.icache.blocked::no_targets               0                       # number of cycles access was blocked
system.cpu.icache.avg_blocked_cycles::no_mshrs          nan                       # average number of cycles each access was blocked
system.cpu.icache.avg_blocked_cycles::no_targets          nan                       # average number of cycles each access was blocked
system.cpu.icache.ReadReq_mshr_misses::cpu.inst         1398                       # number of ReadReq MSHR misses
system.cpu.icache.ReadReq_mshr_misses::total         1398                       # number of ReadReq MSHR misses
system.cpu.icache.demand_mshr_misses::cpu.inst         1398                       # number of demand (read+write) MSHR misses
system.cpu.icache.demand_mshr_misses::total         1398                       # number of demand (read+write) MSHR misses
system.cpu.icache.overall_mshr_misses::cpu.inst         1398                       # number of overall MSHR misses
system.cpu.icache.overall_mshr_misses::total         1398                       # number of overall MSHR misses
system.cpu.icache.ReadReq_mshr_miss_latency::cpu.inst    126823000                       # number of ReadReq MSHR miss cycles
system.cpu.icache.ReadReq_mshr_miss_latency::total    126823000                       # number of ReadReq MSHR miss cycles
system.cpu.icache.demand_mshr_miss_latency::cpu.inst    126823000                       # number of demand (read+write) MSHR miss cycles
system.cpu.icache.demand_mshr_miss_latency::total    126823000                       # number of demand (read+write) MSHR miss cycles
system.cpu.icache.overall_mshr_miss_latency::cpu.inst    126823000                       # number of overall MSHR miss cycles
system.cpu.icache.overall_mshr_miss_latency::total    126823000                       # number of overall MSHR miss cycles
system.cpu.icache.ReadReq_mshr_miss_rate::cpu.inst     0.000076                       # mshr miss rate for ReadReq accesses
system.cpu.icache.ReadReq_mshr_miss_rate::total     0.000076                       # mshr miss rate for ReadReq accesses
system.cpu.icache.demand_mshr_miss_rate::cpu.inst     0.000076                       # mshr miss rate for demand accesses
system.cpu.icache.demand_mshr_miss_rate::total     0.000076                       # mshr miss rate for demand accesses
system.cpu.icache.overall_mshr_miss_rate::cpu.inst     0.000076                       # mshr miss rate for overall accesses
system.cpu.icache.overall_mshr_miss_rate::total     0.000076                       # mshr miss rate for overall accesses
system.cpu.icache.ReadReq_avg_mshr_miss_latency::cpu.inst 90717.453505                       # average ReadReq mshr miss latency
system.cpu.icache.ReadReq_avg_mshr_miss_latency::total 90717.453505                       # average ReadReq mshr miss latency
system.cpu.icache.demand_avg_mshr_miss_latency::cpu.inst 90717.453505                       # average overall mshr miss latency
system.cpu.icache.demand_avg_mshr_miss_latency::total 90717.453505                       # average overall mshr miss latency
system.cpu.icache.overall_avg_mshr_miss_latency::cpu.inst 90717.453505                       # average overall mshr miss latency
system.cpu.icache.overall_avg_mshr_miss_latency::total 90717.453505                       # average overall mshr miss latency
system.l2bus.snoop_filter.tot_requests        2579054                       # Total number of requests made to the snoop filter.
system.l2bus.snoop_filter.hit_single_requests      1288774                       # Number of requests hitting in the snoop filter with a single holder of the requested data.
system.l2bus.snoop_filter.hit_multi_requests            5                       # Number of requests hitting in the snoop filter with multiple (>1) holders of the requested data.
system.l2bus.snoop_filter.tot_snoops              234                       # Total number of snoops made to the snoop filter.
system.l2bus.snoop_filter.hit_single_snoops          234                       # Number of snoops hitting in the snoop filter with a single holder of the requested data.
system.l2bus.snoop_filter.hit_multi_snoops            0                       # Number of snoops hitting in the snoop filter with multiple (>1) holders of the requested data.
system.l2bus.pwrStateResidencyTicks::UNDEFINED 134217669000                       # Cumulative time (in ticks) in various power states
system.l2bus.trans_dist::ReadResp               74034                       # Transaction distribution
system.l2bus.trans_dist::WritebackDirty       1283445                       # Transaction distribution
system.l2bus.trans_dist::CleanEvict              8016                       # Transaction distribution
system.l2bus.trans_dist::ReadExReq            1216247                       # Transaction distribution
system.l2bus.trans_dist::ReadExResp           1216247                       # Transaction distribution
system.l2bus.trans_dist::ReadSharedReq          74035                       # Transaction distribution
system.l2bus.pkt_count_system.cpu.icache.mem_side::system.l2cache.cpu_side         3707                       # Packet count per connected master and slave (bytes)
system.l2bus.pkt_count_system.cpu.dcache.mem_side::system.l2cache.cpu_side      3865628                       # Packet count per connected master and slave (bytes)
system.l2bus.pkt_count::total                 3869335                       # Packet count per connected master and slave (bytes)
system.l2bus.pkt_size_system.cpu.icache.mem_side::system.l2cache.cpu_side        89408                       # Cumulative packet size per connected master and slave (bytes)
system.l2bus.pkt_size_system.cpu.dcache.mem_side::system.l2cache.cpu_side    164593600                       # Cumulative packet size per connected master and slave (bytes)
system.l2bus.pkt_size::total                164683008                       # Cumulative packet size per connected master and slave (bytes)
system.l2bus.snoops                              2689                       # Total snoops (count)
system.l2bus.snoopTraffic                       35456                       # Total snoop traffic (bytes)
system.l2bus.snoop_fanout::samples            1292971                       # Request fanout histogram
system.l2bus.snoop_fanout::mean              0.000186                       # Request fanout histogram
system.l2bus.snoop_fanout::stdev             0.013651                       # Request fanout histogram
system.l2bus.snoop_fanout::underflows               0      0.00%      0.00% # Request fanout histogram
system.l2bus.snoop_fanout::0                  1292730     99.98%     99.98% # Request fanout histogram
system.l2bus.snoop_fanout::1                      241      0.02%    100.00% # Request fanout histogram
system.l2bus.snoop_fanout::2                        0      0.00%    100.00% # Request fanout histogram
system.l2bus.snoop_fanout::overflows                0      0.00%    100.00% # Request fanout histogram
system.l2bus.snoop_fanout::min_value                0                       # Request fanout histogram
system.l2bus.snoop_fanout::max_value                1                       # Request fanout histogram
system.l2bus.snoop_fanout::total              1292971                       # Request fanout histogram
system.l2bus.reqLayer0.occupancy           5144836000                       # Layer occupancy (ticks)
system.l2bus.reqLayer0.utilization                3.8                       # Layer utilization (%)
system.l2bus.respLayer0.occupancy             4191000                       # Layer occupancy (ticks)
system.l2bus.respLayer0.utilization               0.0                       # Layer utilization (%)
system.l2bus.respLayer1.occupancy          3866652000                       # Layer occupancy (ticks)
system.l2bus.respLayer1.utilization               2.9                       # Layer utilization (%)
system.l2cache.tags.pwrStateResidencyTicks::UNDEFINED 134217669000                       # Cumulative time (in ticks) in various power states
system.l2cache.tags.replacements                 2689                       # number of replacements
system.l2cache.tags.tagsinuse            56031.118057                       # Cycle average of tags in use
system.l2cache.tags.total_refs                2512793                       # Total number of references to valid blocks.
system.l2cache.tags.sampled_refs                66157                       # Sample count of references to valid blocks.
system.l2cache.tags.avg_refs                37.982269                       # Average number of references to valid blocks.
system.l2cache.tags.warmup_cycle                    0                       # Cycle when the warmup percentage was hit.
system.l2cache.tags.occ_blocks::cpu.inst   632.944706                       # Average occupied blocks per requestor
system.l2cache.tags.occ_blocks::cpu.data 55398.173351                       # Average occupied blocks per requestor
system.l2cache.tags.occ_percent::cpu.inst     0.009658                       # Average percentage of cache occupancy
system.l2cache.tags.occ_percent::cpu.data     0.845309                       # Average percentage of cache occupancy
system.l2cache.tags.occ_percent::total       0.854967                       # Average percentage of cache occupancy
system.l2cache.tags.occ_task_id_blocks::1024        63468                       # Occupied blocks per task id
system.l2cache.tags.age_task_id_blocks_1024::0           80                       # Occupied blocks per task id
system.l2cache.tags.age_task_id_blocks_1024::1          273                       # Occupied blocks per task id
system.l2cache.tags.age_task_id_blocks_1024::3            2                       # Occupied blocks per task id
system.l2cache.tags.age_task_id_blocks_1024::4        63113                       # Occupied blocks per task id
system.l2cache.tags.occ_task_id_percent::1024     0.968445                       # Percentage of cache occupancy per task id
system.l2cache.tags.tag_accesses             20698549                       # Number of tag accesses
system.l2cache.tags.data_accesses            20698549                       # Number of data accesses
system.l2cache.pwrStateResidencyTicks::UNDEFINED 134217669000                       # Cumulative time (in ticks) in various power states
system.l2cache.WritebackDirty_hits::writebacks      1282891                       # number of WritebackDirty hits
system.l2cache.WritebackDirty_hits::total      1282891                       # number of WritebackDirty hits
system.l2cache.ReadExReq_hits::cpu.data       1153184                       # number of ReadExReq hits
system.l2cache.ReadExReq_hits::total          1153184                       # number of ReadExReq hits
system.l2cache.ReadSharedReq_hits::cpu.inst          235                       # number of ReadSharedReq hits
system.l2cache.ReadSharedReq_hits::cpu.data        70705                       # number of ReadSharedReq hits
system.l2cache.ReadSharedReq_hits::total        70940                       # number of ReadSharedReq hits
system.l2cache.demand_hits::cpu.inst              235                       # number of demand (read+write) hits
system.l2cache.demand_hits::cpu.data          1223889                       # number of demand (read+write) hits
system.l2cache.demand_hits::total             1224124                       # number of demand (read+write) hits
system.l2cache.overall_hits::cpu.inst             235                       # number of overall hits
system.l2cache.overall_hits::cpu.data         1223889                       # number of overall hits
system.l2cache.overall_hits::total            1224124                       # number of overall hits
system.l2cache.ReadExReq_misses::cpu.data        63063                       # number of ReadExReq misses
system.l2cache.ReadExReq_misses::total          63063                       # number of ReadExReq misses
system.l2cache.ReadSharedReq_misses::cpu.inst         1163                       # number of ReadSharedReq misses
system.l2cache.ReadSharedReq_misses::cpu.data         1932                       # number of ReadSharedReq misses
system.l2cache.ReadSharedReq_misses::total         3095                       # number of ReadSharedReq misses
system.l2cache.demand_misses::cpu.inst           1163                       # number of demand (read+write) misses
system.l2cache.demand_misses::cpu.data          64995                       # number of demand (read+write) misses
system.l2cache.demand_misses::total             66158                       # number of demand (read+write) misses
system.l2cache.overall_misses::cpu.inst          1163                       # number of overall misses
system.l2cache.overall_misses::cpu.data         64995                       # number of overall misses
system.l2cache.overall_misses::total            66158                       # number of overall misses
system.l2cache.ReadExReq_miss_latency::cpu.data   7689625000                       # number of ReadExReq miss cycles
system.l2cache.ReadExReq_miss_latency::total   7689625000                       # number of ReadExReq miss cycles
system.l2cache.ReadSharedReq_miss_latency::cpu.inst    117683000                       # number of ReadSharedReq miss cycles
system.l2cache.ReadSharedReq_miss_latency::cpu.data    196307000                       # number of ReadSharedReq miss cycles
system.l2cache.ReadSharedReq_miss_latency::total    313990000                       # number of ReadSharedReq miss cycles
system.l2cache.demand_miss_latency::cpu.inst    117683000                       # number of demand (read+write) miss cycles
system.l2cache.demand_miss_latency::cpu.data   7885932000                       # number of demand (read+write) miss cycles
system.l2cache.demand_miss_latency::total   8003615000                       # number of demand (read+write) miss cycles
system.l2cache.overall_miss_latency::cpu.inst    117683000                       # number of overall miss cycles
system.l2cache.overall_miss_latency::cpu.data   7885932000                       # number of overall miss cycles
system.l2cache.overall_miss_latency::total   8003615000                       # number of overall miss cycles
system.l2cache.WritebackDirty_accesses::writebacks      1282891                       # number of WritebackDirty accesses(hits+misses)
system.l2cache.WritebackDirty_accesses::total      1282891                       # number of WritebackDirty accesses(hits+misses)
system.l2cache.ReadExReq_accesses::cpu.data      1216247                       # number of ReadExReq accesses(hits+misses)
system.l2cache.ReadExReq_accesses::total      1216247                       # number of ReadExReq accesses(hits+misses)
system.l2cache.ReadSharedReq_accesses::cpu.inst         1398                       # number of ReadSharedReq accesses(hits+misses)
system.l2cache.ReadSharedReq_accesses::cpu.data        72637                       # number of ReadSharedReq accesses(hits+misses)
system.l2cache.ReadSharedReq_accesses::total        74035                       # number of ReadSharedReq accesses(hits+misses)
system.l2cache.demand_accesses::cpu.inst         1398                       # number of demand (read+write) accesses
system.l2cache.demand_accesses::cpu.data      1288884                       # number of demand (read+write) accesses
system.l2cache.demand_accesses::total         1290282                       # number of demand (read+write) accesses
system.l2cache.overall_accesses::cpu.inst         1398                       # number of overall (read+write) accesses
system.l2cache.overall_accesses::cpu.data      1288884                       # number of overall (read+write) accesses
system.l2cache.overall_accesses::total        1290282                       # number of overall (read+write) accesses
system.l2cache.ReadExReq_miss_rate::cpu.data     0.051850                       # miss rate for ReadExReq accesses
system.l2cache.ReadExReq_miss_rate::total     0.051850                       # miss rate for ReadExReq accesses
system.l2cache.ReadSharedReq_miss_rate::cpu.inst     0.831903                       # miss rate for ReadSharedReq accesses
system.l2cache.ReadSharedReq_miss_rate::cpu.data     0.026598                       # miss rate for ReadSharedReq accesses
system.l2cache.ReadSharedReq_miss_rate::total     0.041805                       # miss rate for ReadSharedReq accesses
system.l2cache.demand_miss_rate::cpu.inst     0.831903                       # miss rate for demand accesses
system.l2cache.demand_miss_rate::cpu.data     0.050427                       # miss rate for demand accesses
system.l2cache.demand_miss_rate::total       0.051274                       # miss rate for demand accesses
system.l2cache.overall_miss_rate::cpu.inst     0.831903                       # miss rate for overall accesses
system.l2cache.overall_miss_rate::cpu.data     0.050427                       # miss rate for overall accesses
system.l2cache.overall_miss_rate::total      0.051274                       # miss rate for overall accesses
system.l2cache.ReadExReq_avg_miss_latency::cpu.data 121935.604078                       # average ReadExReq miss latency
system.l2cache.ReadExReq_avg_miss_latency::total 121935.604078                       # average ReadExReq miss latency
system.l2cache.ReadSharedReq_avg_miss_latency::cpu.inst 101189.165950                       # average ReadSharedReq miss latency
system.l2cache.ReadSharedReq_avg_miss_latency::cpu.data 101608.178054                       # average ReadSharedReq miss latency
system.l2cache.ReadSharedReq_avg_miss_latency::total 101450.726979                       # average ReadSharedReq miss latency
system.l2cache.demand_avg_miss_latency::cpu.inst 101189.165950                       # average overall miss latency
system.l2cache.demand_avg_miss_latency::cpu.data 121331.363951                       # average overall miss latency
system.l2cache.demand_avg_miss_latency::total 120977.281659                       # average overall miss latency
system.l2cache.overall_avg_miss_latency::cpu.inst 101189.165950                       # average overall miss latency
system.l2cache.overall_avg_miss_latency::cpu.data 121331.363951                       # average overall miss latency
system.l2cache.overall_avg_miss_latency::total 120977.281659                       # average overall miss latency
system.l2cache.blocked_cycles::no_mshrs             0                       # number of cycles access was blocked
system.l2cache.blocked_cycles::no_targets            0                       # number of cycles access was blocked
system.l2cache.blocked::no_mshrs                    0                       # number of cycles access was blocked
system.l2cache.blocked::no_targets                  0                       # number of cycles access was blocked
system.l2cache.avg_blocked_cycles::no_mshrs          nan                       # average number of cycles each access was blocked
system.l2cache.avg_blocked_cycles::no_targets          nan                       # average number of cycles each access was blocked
system.l2cache.writebacks::writebacks             554                       # number of writebacks
system.l2cache.writebacks::total                  554                       # number of writebacks
system.l2cache.CleanEvict_mshr_misses::writebacks           98                       # number of CleanEvict MSHR misses
system.l2cache.CleanEvict_mshr_misses::total           98                       # number of CleanEvict MSHR misses
system.l2cache.ReadExReq_mshr_misses::cpu.data        63063                       # number of ReadExReq MSHR misses
system.l2cache.ReadExReq_mshr_misses::total        63063                       # number of ReadExReq MSHR misses
system.l2cache.ReadSharedReq_mshr_misses::cpu.inst         1163                       # number of ReadSharedReq MSHR misses
system.l2cache.ReadSharedReq_mshr_misses::cpu.data         1932                       # number of ReadSharedReq MSHR misses
system.l2cache.ReadSharedReq_mshr_misses::total         3095                       # number of ReadSharedReq MSHR misses
system.l2cache.demand_mshr_misses::cpu.inst         1163                       # number of demand (read+write) MSHR misses
system.l2cache.demand_mshr_misses::cpu.data        64995                       # number of demand (read+write) MSHR misses
system.l2cache.demand_mshr_misses::total        66158                       # number of demand (read+write) MSHR misses
system.l2cache.overall_mshr_misses::cpu.inst         1163                       # number of overall MSHR misses
system.l2cache.overall_mshr_misses::cpu.data        64995                       # number of overall MSHR misses
system.l2cache.overall_mshr_misses::total        66158                       # number of overall MSHR misses
system.l2cache.ReadExReq_mshr_miss_latency::cpu.data   6428365000                       # number of ReadExReq MSHR miss cycles
system.l2cache.ReadExReq_mshr_miss_latency::total   6428365000                       # number of ReadExReq MSHR miss cycles
system.l2cache.ReadSharedReq_mshr_miss_latency::cpu.inst     94443000                       # number of ReadSharedReq MSHR miss cycles
system.l2cache.ReadSharedReq_mshr_miss_latency::cpu.data    157667000                       # number of ReadSharedReq MSHR miss cycles
system.l2cache.ReadSharedReq_mshr_miss_latency::total    252110000                       # number of ReadSharedReq MSHR miss cycles
system.l2cache.demand_mshr_miss_latency::cpu.inst     94443000                       # number of demand (read+write) MSHR miss cycles
system.l2cache.demand_mshr_miss_latency::cpu.data   6586032000                       # number of demand (read+write) MSHR miss cycles
system.l2cache.demand_mshr_miss_latency::total   6680475000                       # number of demand (read+write) MSHR miss cycles
system.l2cache.overall_mshr_miss_latency::cpu.inst     94443000                       # number of overall MSHR miss cycles
system.l2cache.overall_mshr_miss_latency::cpu.data   6586032000                       # number of overall MSHR miss cycles
system.l2cache.overall_mshr_miss_latency::total   6680475000                       # number of overall MSHR miss cycles
system.l2cache.CleanEvict_mshr_miss_rate::writebacks          inf                       # mshr miss rate for CleanEvict accesses
system.l2cache.CleanEvict_mshr_miss_rate::total          inf                       # mshr miss rate for CleanEvict accesses
system.l2cache.ReadExReq_mshr_miss_rate::cpu.data     0.051850                       # mshr miss rate for ReadExReq accesses
system.l2cache.ReadExReq_mshr_miss_rate::total     0.051850                       # mshr miss rate for ReadExReq accesses
system.l2cache.ReadSharedReq_mshr_miss_rate::cpu.inst     0.831903                       # mshr miss rate for ReadSharedReq accesses
system.l2cache.ReadSharedReq_mshr_miss_rate::cpu.data     0.026598                       # mshr miss rate for ReadSharedReq accesses
system.l2cache.ReadSharedReq_mshr_miss_rate::total     0.041805                       # mshr miss rate for ReadSharedReq accesses
system.l2cache.demand_mshr_miss_rate::cpu.inst     0.831903                       # mshr miss rate for demand accesses
system.l2cache.demand_mshr_miss_rate::cpu.data     0.050427                       # mshr miss rate for demand accesses
system.l2cache.demand_mshr_miss_rate::total     0.051274                       # mshr miss rate for demand accesses
system.l2cache.overall_mshr_miss_rate::cpu.inst     0.831903                       # mshr miss rate for overall accesses
system.l2cache.overall_mshr_miss_rate::cpu.data     0.050427                       # mshr miss rate for overall accesses
system.l2cache.overall_mshr_miss_rate::total     0.051274                       # mshr miss rate for overall accesses
system.l2cache.ReadExReq_avg_mshr_miss_latency::cpu.data 101935.604078                       # average ReadExReq mshr miss latency
system.l2cache.ReadExReq_avg_mshr_miss_latency::total 101935.604078                       # average ReadExReq mshr miss latency
system.l2cache.ReadSharedReq_avg_mshr_miss_latency::cpu.inst 81206.362855                       # average ReadSharedReq mshr miss latency
system.l2cache.ReadSharedReq_avg_mshr_miss_latency::cpu.data 81608.178054                       # average ReadSharedReq mshr miss latency
system.l2cache.ReadSharedReq_avg_mshr_miss_latency::total 81457.189015                       # average ReadSharedReq mshr miss latency
system.l2cache.demand_avg_mshr_miss_latency::cpu.inst 81206.362855                       # average overall mshr miss latency
system.l2cache.demand_avg_mshr_miss_latency::cpu.data 101331.363951                       # average overall mshr miss latency
system.l2cache.demand_avg_mshr_miss_latency::total 100977.583966                       # average overall mshr miss latency
system.l2cache.overall_avg_mshr_miss_latency::cpu.inst 81206.362855                       # average overall mshr miss latency
system.l2cache.overall_avg_mshr_miss_latency::cpu.data 101331.363951                       # average overall mshr miss latency
system.l2cache.overall_avg_mshr_miss_latency::total 100977.583966                       # average overall mshr miss latency
system.membus.snoop_filter.tot_requests         68709                       # Total number of requests made to the snoop filter.
system.membus.snoop_filter.hit_single_requests         2552                       # Number of requests hitting in the snoop filter with a single holder of the requested data.
system.membus.snoop_filter.hit_multi_requests            0                       # Number of requests hitting in the snoop filter with multiple (>1) holders of the requested data.
system.membus.snoop_filter.tot_snoops               0                       # Total number of snoops made to the snoop filter.
system.membus.snoop_filter.hit_single_snoops            0                       # Number of snoops hitting in the snoop filter with a single holder of the requested data.
system.membus.snoop_filter.hit_multi_snoops            0                       # Number of snoops hitting in the snoop filter with multiple (>1) holders of the requested data.
system.membus.pwrStateResidencyTicks::UNDEFINED 134217669000                       # Cumulative time (in ticks) in various power states
system.membus.trans_dist::ReadResp               3094                       # Transaction distribution
system.membus.trans_dist::WritebackDirty          554                       # Transaction distribution
system.membus.trans_dist::CleanEvict             1998                       # Transaction distribution
system.membus.trans_dist::ReadExReq             63063                       # Transaction distribution
system.membus.trans_dist::ReadExResp            63063                       # Transaction distribution
system.membus.trans_dist::ReadSharedReq          3094                       # Transaction distribution
system.membus.pkt_count_system.l2cache.mem_side::system.mem_ctrl.port       134866                       # Packet count per connected master and slave (bytes)
system.membus.pkt_count_system.l2cache.mem_side::total       134866                       # Packet count per connected master and slave (bytes)
system.membus.pkt_count::total                 134866                       # Packet count per connected master and slave (bytes)
system.membus.pkt_size_system.l2cache.mem_side::system.mem_ctrl.port      4269504                       # Cumulative packet size per connected master and slave (bytes)
system.membus.pkt_size_system.l2cache.mem_side::total      4269504                       # Cumulative packet size per connected master and slave (bytes)
system.membus.pkt_size::total                 4269504                       # Cumulative packet size per connected master and slave (bytes)
system.membus.snoops                                0                       # Total snoops (count)
system.membus.snoopTraffic                          0                       # Total snoop traffic (bytes)
system.membus.snoop_fanout::samples             66157                       # Request fanout histogram
system.membus.snoop_fanout::mean                    0                       # Request fanout histogram
system.membus.snoop_fanout::stdev                   0                       # Request fanout histogram
system.membus.snoop_fanout::underflows              0      0.00%      0.00% # Request fanout histogram
system.membus.snoop_fanout::0                   66157    100.00%    100.00% # Request fanout histogram
system.membus.snoop_fanout::1                       0      0.00%    100.00% # Request fanout histogram
system.membus.snoop_fanout::overflows               0      0.00%    100.00% # Request fanout histogram
system.membus.snoop_fanout::min_value               0                       # Request fanout histogram
system.membus.snoop_fanout::max_value               0                       # Request fanout histogram
system.membus.snoop_fanout::total               66157                       # Request fanout histogram
system.membus.reqLayer2.occupancy            70925000                       # Layer occupancy (ticks)
system.membus.reqLayer2.utilization               0.1                       # Layer utilization (%)
system.membus.respLayer0.occupancy          340978736                       # Layer occupancy (ticks)
system.membus.respLayer0.utilization              0.3                       # Layer utilization (%)

---------- End Simulation Statistics   ----------
