
---------- Begin Simulation Statistics ----------
sim_seconds                                  0.114153                       # Number of seconds simulated
sim_ticks                                114153298500                       # Number of ticks simulated
final_tick                               114153298500                       # Number of ticks from beginning of simulation (restored from checkpoints and never reset)
sim_freq                                 1000000000000                       # Frequency of simulated ticks
host_inst_rate                                1069738                       # Simulator instruction rate (inst/s)
host_op_rate                                  1840001                       # Simulator op (including micro ops) rate (op/s)
host_tick_rate                             2560031334                       # Simulator tick rate (ticks/s)
host_mem_usage                                 683784                       # Number of bytes of host memory used
host_seconds                                    44.59                       # Real time elapsed on the host
sim_insts                                    47700244                       # Number of instructions simulated
sim_ops                                      82046706                       # Number of ops (including micro ops) simulated
system.clk_domain.voltage_domain.voltage            1                       # Voltage in Volts
system.clk_domain.clock                           500                       # Clock period in ticks
system.mem_ctrl.pwrStateResidencyTicks::UNDEFINED 114153298500                       # Cumulative time (in ticks) in various power states
system.mem_ctrl.bytes_read::cpu.inst            54912                       # Number of bytes read from this memory
system.mem_ctrl.bytes_read::cpu.data          4159488                       # Number of bytes read from this memory
system.mem_ctrl.bytes_read::total             4214400                       # Number of bytes read from this memory
system.mem_ctrl.bytes_inst_read::cpu.inst        54912                       # Number of instructions bytes read from this memory
system.mem_ctrl.bytes_inst_read::total          54912                       # Number of instructions bytes read from this memory
system.mem_ctrl.bytes_written::writebacks        30464                       # Number of bytes written to this memory
system.mem_ctrl.bytes_written::total            30464                       # Number of bytes written to this memory
system.mem_ctrl.num_reads::cpu.inst               858                       # Number of read requests responded to by this memory
system.mem_ctrl.num_reads::cpu.data             64992                       # Number of read requests responded to by this memory
system.mem_ctrl.num_reads::total                65850                       # Number of read requests responded to by this memory
system.mem_ctrl.num_writes::writebacks            476                       # Number of write requests responded to by this memory
system.mem_ctrl.num_writes::total                 476                       # Number of write requests responded to by this memory
system.mem_ctrl.bw_read::cpu.inst              481037                       # Total read bandwidth from this memory (bytes/s)
system.mem_ctrl.bw_read::cpu.data            36437738                       # Total read bandwidth from this memory (bytes/s)
system.mem_ctrl.bw_read::total               36918776                       # Total read bandwidth from this memory (bytes/s)
system.mem_ctrl.bw_inst_read::cpu.inst         481037                       # Instruction read bandwidth from this memory (bytes/s)
system.mem_ctrl.bw_inst_read::total            481037                       # Instruction read bandwidth from this memory (bytes/s)
system.mem_ctrl.bw_write::writebacks           266869                       # Write bandwidth from this memory (bytes/s)
system.mem_ctrl.bw_write::total                266869                       # Write bandwidth from this memory (bytes/s)
system.mem_ctrl.bw_total::writebacks           266869                       # Total bandwidth to/from this memory (bytes/s)
system.mem_ctrl.bw_total::cpu.inst             481037                       # Total bandwidth to/from this memory (bytes/s)
system.mem_ctrl.bw_total::cpu.data           36437738                       # Total bandwidth to/from this memory (bytes/s)
system.mem_ctrl.bw_total::total              37185645                       # Total bandwidth to/from this memory (bytes/s)
system.mem_ctrl.readReqs                        65850                       # Number of read requests accepted
system.mem_ctrl.writeReqs                         476                       # Number of write requests accepted
system.mem_ctrl.readBursts                      65850                       # Number of DRAM read bursts, including those serviced by the write queue
system.mem_ctrl.writeBursts                       476                       # Number of DRAM write bursts, including those merged in the write queue
system.mem_ctrl.bytesReadDRAM                 4210240                       # Total number of bytes read from DRAM
system.mem_ctrl.bytesReadWrQ                     4160                       # Total number of bytes read from write queue
system.mem_ctrl.bytesWritten                    25792                       # Total number of bytes written to DRAM
system.mem_ctrl.bytesReadSys                  4214400                       # Total read bytes from the system interface side
system.mem_ctrl.bytesWrittenSys                 30464                       # Total written bytes from the system interface side
system.mem_ctrl.servicedByWrQ                      65                       # Number of DRAM read bursts serviced by the write queue
system.mem_ctrl.mergedWrBursts                     54                       # Number of DRAM write bursts merged with an existing one
system.mem_ctrl.neitherReadNorWriteReqs             0                       # Number of requests that are neither read nor write
system.mem_ctrl.perBankRdBursts::0               4197                       # Per bank write bursts
system.mem_ctrl.perBankRdBursts::1               4190                       # Per bank write bursts
system.mem_ctrl.perBankRdBursts::2               4166                       # Per bank write bursts
system.mem_ctrl.perBankRdBursts::3               4108                       # Per bank write bursts
system.mem_ctrl.perBankRdBursts::4               4222                       # Per bank write bursts
system.mem_ctrl.perBankRdBursts::5               4245                       # Per bank write bursts
system.mem_ctrl.perBankRdBursts::6               4238                       # Per bank write bursts
system.mem_ctrl.perBankRdBursts::7               4115                       # Per bank write bursts
system.mem_ctrl.perBankRdBursts::8               4046                       # Per bank write bursts
system.mem_ctrl.perBankRdBursts::9               4129                       # Per bank write bursts
system.mem_ctrl.perBankRdBursts::10              4164                       # Per bank write bursts
system.mem_ctrl.perBankRdBursts::11              4082                       # Per bank write bursts
system.mem_ctrl.perBankRdBursts::12              3878                       # Per bank write bursts
system.mem_ctrl.perBankRdBursts::13              3905                       # Per bank write bursts
system.mem_ctrl.perBankRdBursts::14              3963                       # Per bank write bursts
system.mem_ctrl.perBankRdBursts::15              4137                       # Per bank write bursts
system.mem_ctrl.perBankWrBursts::0                 18                       # Per bank write bursts
system.mem_ctrl.perBankWrBursts::1                 27                       # Per bank write bursts
system.mem_ctrl.perBankWrBursts::2                  0                       # Per bank write bursts
system.mem_ctrl.perBankWrBursts::3                  3                       # Per bank write bursts
system.mem_ctrl.perBankWrBursts::4                 36                       # Per bank write bursts
system.mem_ctrl.perBankWrBursts::5                 84                       # Per bank write bursts
system.mem_ctrl.perBankWrBursts::6                 81                       # Per bank write bursts
system.mem_ctrl.perBankWrBursts::7                 53                       # Per bank write bursts
system.mem_ctrl.perBankWrBursts::8                  0                       # Per bank write bursts
system.mem_ctrl.perBankWrBursts::9                 31                       # Per bank write bursts
system.mem_ctrl.perBankWrBursts::10                41                       # Per bank write bursts
system.mem_ctrl.perBankWrBursts::11                 8                       # Per bank write bursts
system.mem_ctrl.perBankWrBursts::12                 2                       # Per bank write bursts
system.mem_ctrl.perBankWrBursts::13                 0                       # Per bank write bursts
system.mem_ctrl.perBankWrBursts::14                15                       # Per bank write bursts
system.mem_ctrl.perBankWrBursts::15                 4                       # Per bank write bursts
system.mem_ctrl.numRdRetry                          0                       # Number of times read queue was full causing retry
system.mem_ctrl.numWrRetry                          0                       # Number of times write queue was full causing retry
system.mem_ctrl.totGap                   114153225500                       # Total gap between requests
system.mem_ctrl.readPktSize::0                      0                       # Read request sizes (log2)
system.mem_ctrl.readPktSize::1                      0                       # Read request sizes (log2)
system.mem_ctrl.readPktSize::2                      0                       # Read request sizes (log2)
system.mem_ctrl.readPktSize::3                      0                       # Read request sizes (log2)
system.mem_ctrl.readPktSize::4                      0                       # Read request sizes (log2)
system.mem_ctrl.readPktSize::5                      0                       # Read request sizes (log2)
system.mem_ctrl.readPktSize::6                  65850                       # Read request sizes (log2)
system.mem_ctrl.writePktSize::0                     0                       # Write request sizes (log2)
system.mem_ctrl.writePktSize::1                     0                       # Write request sizes (log2)
system.mem_ctrl.writePktSize::2                     0                       # Write request sizes (log2)
system.mem_ctrl.writePktSize::3                     0                       # Write request sizes (log2)
system.mem_ctrl.writePktSize::4                     0                       # Write request sizes (log2)
system.mem_ctrl.writePktSize::5                     0                       # Write request sizes (log2)
system.mem_ctrl.writePktSize::6                   476                       # Write request sizes (log2)
system.mem_ctrl.rdQLenPdf::0                    65785                       # What read queue length does an incoming req see
system.mem_ctrl.rdQLenPdf::1                        0                       # What read queue length does an incoming req see
system.mem_ctrl.rdQLenPdf::2                        0                       # What read queue length does an incoming req see
system.mem_ctrl.rdQLenPdf::3                        0                       # What read queue length does an incoming req see
system.mem_ctrl.rdQLenPdf::4                        0                       # What read queue length does an incoming req see
system.mem_ctrl.rdQLenPdf::5                        0                       # What read queue length does an incoming req see
system.mem_ctrl.rdQLenPdf::6                        0                       # What read queue length does an incoming req see
system.mem_ctrl.rdQLenPdf::7                        0                       # What read queue length does an incoming req see
system.mem_ctrl.rdQLenPdf::8                        0                       # What read queue length does an incoming req see
system.mem_ctrl.rdQLenPdf::9                        0                       # What read queue length does an incoming req see
system.mem_ctrl.rdQLenPdf::10                       0                       # What read queue length does an incoming req see
system.mem_ctrl.rdQLenPdf::11                       0                       # What read queue length does an incoming req see
system.mem_ctrl.rdQLenPdf::12                       0                       # What read queue length does an incoming req see
system.mem_ctrl.rdQLenPdf::13                       0                       # What read queue length does an incoming req see
system.mem_ctrl.rdQLenPdf::14                       0                       # What read queue length does an incoming req see
system.mem_ctrl.rdQLenPdf::15                       0                       # What read queue length does an incoming req see
system.mem_ctrl.rdQLenPdf::16                       0                       # What read queue length does an incoming req see
system.mem_ctrl.rdQLenPdf::17                       0                       # What read queue length does an incoming req see
system.mem_ctrl.rdQLenPdf::18                       0                       # What read queue length does an incoming req see
system.mem_ctrl.rdQLenPdf::19                       0                       # What read queue length does an incoming req see
system.mem_ctrl.rdQLenPdf::20                       0                       # What read queue length does an incoming req see
system.mem_ctrl.rdQLenPdf::21                       0                       # What read queue length does an incoming req see
system.mem_ctrl.rdQLenPdf::22                       0                       # What read queue length does an incoming req see
system.mem_ctrl.rdQLenPdf::23                       0                       # What read queue length does an incoming req see
system.mem_ctrl.rdQLenPdf::24                       0                       # What read queue length does an incoming req see
system.mem_ctrl.rdQLenPdf::25                       0                       # What read queue length does an incoming req see
system.mem_ctrl.rdQLenPdf::26                       0                       # What read queue length does an incoming req see
system.mem_ctrl.rdQLenPdf::27                       0                       # What read queue length does an incoming req see
system.mem_ctrl.rdQLenPdf::28                       0                       # What read queue length does an incoming req see
system.mem_ctrl.rdQLenPdf::29                       0                       # What read queue length does an incoming req see
system.mem_ctrl.rdQLenPdf::30                       0                       # What read queue length does an incoming req see
system.mem_ctrl.rdQLenPdf::31                       0                       # What read queue length does an incoming req see
system.mem_ctrl.wrQLenPdf::0                        1                       # What write queue length does an incoming req see
system.mem_ctrl.wrQLenPdf::1                        1                       # What write queue length does an incoming req see
system.mem_ctrl.wrQLenPdf::2                        1                       # What write queue length does an incoming req see
system.mem_ctrl.wrQLenPdf::3                        1                       # What write queue length does an incoming req see
system.mem_ctrl.wrQLenPdf::4                        1                       # What write queue length does an incoming req see
system.mem_ctrl.wrQLenPdf::5                        1                       # What write queue length does an incoming req see
system.mem_ctrl.wrQLenPdf::6                        1                       # What write queue length does an incoming req see
system.mem_ctrl.wrQLenPdf::7                        1                       # What write queue length does an incoming req see
system.mem_ctrl.wrQLenPdf::8                        1                       # What write queue length does an incoming req see
system.mem_ctrl.wrQLenPdf::9                        1                       # What write queue length does an incoming req see
system.mem_ctrl.wrQLenPdf::10                       1                       # What write queue length does an incoming req see
system.mem_ctrl.wrQLenPdf::11                       1                       # What write queue length does an incoming req see
system.mem_ctrl.wrQLenPdf::12                       1                       # What write queue length does an incoming req see
system.mem_ctrl.wrQLenPdf::13                       1                       # What write queue length does an incoming req see
system.mem_ctrl.wrQLenPdf::14                       1                       # What write queue length does an incoming req see
system.mem_ctrl.wrQLenPdf::15                      10                       # What write queue length does an incoming req see
system.mem_ctrl.wrQLenPdf::16                      11                       # What write queue length does an incoming req see
system.mem_ctrl.wrQLenPdf::17                      25                       # What write queue length does an incoming req see
system.mem_ctrl.wrQLenPdf::18                      25                       # What write queue length does an incoming req see
system.mem_ctrl.wrQLenPdf::19                      24                       # What write queue length does an incoming req see
system.mem_ctrl.wrQLenPdf::20                      24                       # What write queue length does an incoming req see
system.mem_ctrl.wrQLenPdf::21                      24                       # What write queue length does an incoming req see
system.mem_ctrl.wrQLenPdf::22                      24                       # What write queue length does an incoming req see
system.mem_ctrl.wrQLenPdf::23                      24                       # What write queue length does an incoming req see
system.mem_ctrl.wrQLenPdf::24                      24                       # What write queue length does an incoming req see
system.mem_ctrl.wrQLenPdf::25                      24                       # What write queue length does an incoming req see
system.mem_ctrl.wrQLenPdf::26                      24                       # What write queue length does an incoming req see
system.mem_ctrl.wrQLenPdf::27                      24                       # What write queue length does an incoming req see
system.mem_ctrl.wrQLenPdf::28                      24                       # What write queue length does an incoming req see
system.mem_ctrl.wrQLenPdf::29                      24                       # What write queue length does an incoming req see
system.mem_ctrl.wrQLenPdf::30                      24                       # What write queue length does an incoming req see
system.mem_ctrl.wrQLenPdf::31                      24                       # What write queue length does an incoming req see
system.mem_ctrl.wrQLenPdf::32                      24                       # What write queue length does an incoming req see
system.mem_ctrl.wrQLenPdf::33                       0                       # What write queue length does an incoming req see
system.mem_ctrl.wrQLenPdf::34                       0                       # What write queue length does an incoming req see
system.mem_ctrl.wrQLenPdf::35                       0                       # What write queue length does an incoming req see
system.mem_ctrl.wrQLenPdf::36                       0                       # What write queue length does an incoming req see
system.mem_ctrl.wrQLenPdf::37                       0                       # What write queue length does an incoming req see
system.mem_ctrl.wrQLenPdf::38                       0                       # What write queue length does an incoming req see
system.mem_ctrl.wrQLenPdf::39                       0                       # What write queue length does an incoming req see
system.mem_ctrl.wrQLenPdf::40                       0                       # What write queue length does an incoming req see
system.mem_ctrl.wrQLenPdf::41                       0                       # What write queue length does an incoming req see
system.mem_ctrl.wrQLenPdf::42                       0                       # What write queue length does an incoming req see
system.mem_ctrl.wrQLenPdf::43                       0                       # What write queue length does an incoming req see
system.mem_ctrl.wrQLenPdf::44                       0                       # What write queue length does an incoming req see
system.mem_ctrl.wrQLenPdf::45                       0                       # What write queue length does an incoming req see
system.mem_ctrl.wrQLenPdf::46                       0                       # What write queue length does an incoming req see
system.mem_ctrl.wrQLenPdf::47                       0                       # What write queue length does an incoming req see
system.mem_ctrl.wrQLenPdf::48                       0                       # What write queue length does an incoming req see
system.mem_ctrl.wrQLenPdf::49                       0                       # What write queue length does an incoming req see
system.mem_ctrl.wrQLenPdf::50                       0                       # What write queue length does an incoming req see
system.mem_ctrl.wrQLenPdf::51                       0                       # What write queue length does an incoming req see
system.mem_ctrl.wrQLenPdf::52                       0                       # What write queue length does an incoming req see
system.mem_ctrl.wrQLenPdf::53                       0                       # What write queue length does an incoming req see
system.mem_ctrl.wrQLenPdf::54                       0                       # What write queue length does an incoming req see
system.mem_ctrl.wrQLenPdf::55                       0                       # What write queue length does an incoming req see
system.mem_ctrl.wrQLenPdf::56                       0                       # What write queue length does an incoming req see
system.mem_ctrl.wrQLenPdf::57                       0                       # What write queue length does an incoming req see
system.mem_ctrl.wrQLenPdf::58                       0                       # What write queue length does an incoming req see
system.mem_ctrl.wrQLenPdf::59                       0                       # What write queue length does an incoming req see
system.mem_ctrl.wrQLenPdf::60                       0                       # What write queue length does an incoming req see
system.mem_ctrl.wrQLenPdf::61                       0                       # What write queue length does an incoming req see
system.mem_ctrl.wrQLenPdf::62                       0                       # What write queue length does an incoming req see
system.mem_ctrl.wrQLenPdf::63                       0                       # What write queue length does an incoming req see
system.mem_ctrl.bytesPerActivate::samples         7305                       # Bytes accessed per row activation
system.mem_ctrl.bytesPerActivate::mean     579.776044                       # Bytes accessed per row activation
system.mem_ctrl.bytesPerActivate::gmean    418.224328                       # Bytes accessed per row activation
system.mem_ctrl.bytesPerActivate::stdev    403.121974                       # Bytes accessed per row activation
system.mem_ctrl.bytesPerActivate::0-127           215      2.94%      2.94% # Bytes accessed per row activation
system.mem_ctrl.bytesPerActivate::128-255         3114     42.63%     45.57% # Bytes accessed per row activation
system.mem_ctrl.bytesPerActivate::256-383          331      4.53%     50.10% # Bytes accessed per row activation
system.mem_ctrl.bytesPerActivate::384-511           64      0.88%     50.98% # Bytes accessed per row activation
system.mem_ctrl.bytesPerActivate::512-639          153      2.09%     53.07% # Bytes accessed per row activation
system.mem_ctrl.bytesPerActivate::640-767          136      1.86%     54.93% # Bytes accessed per row activation
system.mem_ctrl.bytesPerActivate::768-895           13      0.18%     55.11% # Bytes accessed per row activation
system.mem_ctrl.bytesPerActivate::896-1023          260      3.56%     58.67% # Bytes accessed per row activation
system.mem_ctrl.bytesPerActivate::1024-1151         3019     41.33%    100.00% # Bytes accessed per row activation
system.mem_ctrl.bytesPerActivate::total          7305                       # Bytes accessed per row activation
system.mem_ctrl.rdPerTurnAround::samples           24                       # Reads before turning the bus around for writes
system.mem_ctrl.rdPerTurnAround::mean     2740.875000                       # Reads before turning the bus around for writes
system.mem_ctrl.rdPerTurnAround::gmean      40.930146                       # Reads before turning the bus around for writes
system.mem_ctrl.rdPerTurnAround::stdev   12459.376777                       # Reads before turning the bus around for writes
system.mem_ctrl.rdPerTurnAround::0-2047            22     91.67%     91.67% # Reads before turning the bus around for writes
system.mem_ctrl.rdPerTurnAround::2048-4095            1      4.17%     95.83% # Reads before turning the bus around for writes
system.mem_ctrl.rdPerTurnAround::59392-61439            1      4.17%    100.00% # Reads before turning the bus around for writes
system.mem_ctrl.rdPerTurnAround::total             24                       # Reads before turning the bus around for writes
system.mem_ctrl.wrPerTurnAround::samples           24                       # Writes before turning the bus around for reads
system.mem_ctrl.wrPerTurnAround::mean       16.791667                       # Writes before turning the bus around for reads
system.mem_ctrl.wrPerTurnAround::gmean      16.764832                       # Writes before turning the bus around for reads
system.mem_ctrl.wrPerTurnAround::stdev       0.977093                       # Writes before turning the bus around for reads
system.mem_ctrl.wrPerTurnAround::16                14     58.33%     58.33% # Writes before turning the bus around for reads
system.mem_ctrl.wrPerTurnAround::17                 1      4.17%     62.50% # Writes before turning the bus around for reads
system.mem_ctrl.wrPerTurnAround::18                 9     37.50%    100.00% # Writes before turning the bus around for reads
system.mem_ctrl.wrPerTurnAround::total             24                       # Writes before turning the bus around for reads
system.mem_ctrl.totQLat                     695620312                       # Total ticks spent queuing
system.mem_ctrl.totMemAccLat               1803571282                       # Total ticks spent from burst creation until serviced by the DRAM
system.mem_ctrl.totBusLat                   246825320                       # Total ticks spent in databus transfers
system.mem_ctrl.avgQLat                      10574.15                       # Average queueing delay per DRAM burst
system.mem_ctrl.avgBusLat                     3752.00                       # Average bus latency per DRAM burst
system.mem_ctrl.avgMemAccLat                 27416.15                       # Average memory access latency per DRAM burst
system.mem_ctrl.avgRdBW                         36.88                       # Average DRAM read bandwidth in MiByte/s
system.mem_ctrl.avgWrBW                          0.23                       # Average achieved write bandwidth in MiByte/s
system.mem_ctrl.avgRdBWSys                      36.92                       # Average system read bandwidth in MiByte/s
system.mem_ctrl.avgWrBWSys                       0.27                       # Average system write bandwidth in MiByte/s
system.mem_ctrl.peakBW                       17057.00                       # Theoretical peak bandwidth in MiByte/s
system.mem_ctrl.busUtil                          0.22                       # Data bus utilization in percentage
system.mem_ctrl.busUtilRead                      0.22                       # Data bus utilization in percentage for reads
system.mem_ctrl.busUtilWrite                     0.00                       # Data bus utilization in percentage for writes
system.mem_ctrl.avgRdQLen                        1.00                       # Average read queue length when enqueuing
system.mem_ctrl.avgWrQLen                       17.59                       # Average write queue length when enqueuing
system.mem_ctrl.readRowHits                     58557                       # Number of row buffer hits during reads
system.mem_ctrl.writeRowHits                      322                       # Number of row buffer hits during writes
system.mem_ctrl.readRowHitRate                  89.01                       # Row buffer hit rate for reads
system.mem_ctrl.writeRowHitRate                 76.30                       # Row buffer hit rate for writes
system.mem_ctrl.avgGap                     1721093.17                       # Average gap between requests
system.mem_ctrl.pageHitRate                     88.93                       # Row buffer hit rate, read and write combined
system.mem_ctrl_0.actEnergy              39677129.856000                       # Energy for activate commands per rank (pJ)
system.mem_ctrl_0.preEnergy              19584224.352000                       # Energy for precharge commands per rank (pJ)
system.mem_ctrl_0.readEnergy             221594935.968000                       # Energy for read commands per rank (pJ)
system.mem_ctrl_0.writeEnergy            1536489.024000                       # Energy for write commands per rank (pJ)
system.mem_ctrl_0.refreshEnergy          1162873928.832000                       # Energy for refresh commands per rank (pJ)
system.mem_ctrl_0.actBackEnergy          659133980.736000                       # Energy for active background per rank (pJ)
system.mem_ctrl_0.preBackEnergy          41485608.864000                       # Energy for precharge background per rank (pJ)
system.mem_ctrl_0.actPowerDownEnergy     6131966598.911999                       # Energy for active power-down per rank (pJ)
system.mem_ctrl_0.prePowerDownEnergy     432698311.920000                       # Energy for precharge power-down per rank (pJ)
system.mem_ctrl_0.selfRefreshEnergy      24106702849.823997                       # Energy for self refresh per rank (pJ)
system.mem_ctrl_0.totalEnergy            32817326749.535995                       # Total energy per rank (pJ)
system.mem_ctrl_0.averagePower             287.484127                       # Core power per rank (mW)
system.mem_ctrl_0.totalIdleTime          112811615182                       # Total Idle time Per DRAM Rank
system.mem_ctrl_0.memoryStateTime::IDLE      28595500                       # Time in different power states
system.mem_ctrl_0.memoryStateTime::REF      469010270                       # Time in different power states
system.mem_ctrl_0.memoryStateTime::SREF  100359455350                       # Time in different power states
system.mem_ctrl_0.memoryStateTime::PRE_PDN    838567376                       # Time in different power states
system.mem_ctrl_0.memoryStateTime::ACT      844077548                       # Time in different power states
system.mem_ctrl_0.memoryStateTime::ACT_PDN  11613592456                       # Time in different power states
system.mem_ctrl_1.actEnergy              37327687.488000                       # Energy for activate commands per rank (pJ)
system.mem_ctrl_1.preEnergy              18403762.608000                       # Energy for precharge commands per rank (pJ)
system.mem_ctrl_1.readEnergy             213804928.512000                       # Energy for read commands per rank (pJ)
system.mem_ctrl_1.writeEnergy            513858.912000                       # Energy for write commands per rank (pJ)
system.mem_ctrl_1.refreshEnergy          1129998889.824000                       # Energy for refresh commands per rank (pJ)
system.mem_ctrl_1.actBackEnergy          645394862.112000                       # Energy for active background per rank (pJ)
system.mem_ctrl_1.preBackEnergy          42973663.320000                       # Energy for precharge background per rank (pJ)
system.mem_ctrl_1.actPowerDownEnergy     5947291072.799999                       # Energy for active power-down per rank (pJ)
system.mem_ctrl_1.prePowerDownEnergy     425340906.312000                       # Energy for precharge power-down per rank (pJ)
system.mem_ctrl_1.selfRefreshEnergy      24198843205.152000                       # Energy for self refresh per rank (pJ)
system.mem_ctrl_1.totalEnergy            32659892837.040001                       # Total energy per rank (pJ)
system.mem_ctrl_1.averagePower             286.105554                       # Core power per rank (mW)
system.mem_ctrl_1.totalIdleTime          112834095386                       # Total Idle time Per DRAM Rank
system.mem_ctrl_1.memoryStateTime::IDLE      33482500                       # Time in different power states
system.mem_ctrl_1.memoryStateTime::REF      455984000                       # Time in different power states
system.mem_ctrl_1.memoryStateTime::SREF  100746058440                       # Time in different power states
system.mem_ctrl_1.memoryStateTime::PRE_PDN    824313892                       # Time in different power states
system.mem_ctrl_1.memoryStateTime::ACT      829697956                       # Time in different power states
system.mem_ctrl_1.memoryStateTime::ACT_PDN  11263761712                       # Time in different power states
system.pwrStateResidencyTicks::UNDEFINED 114153298500                       # Cumulative time (in ticks) in various power states
system.cpu.dtb.walker.pwrStateResidencyTicks::UNDEFINED 114153298500                       # Cumulative time (in ticks) in various power states
system.cpu.dtb.rdAccesses                    23854000                       # TLB accesses on read requests
system.cpu.dtb.wrAccesses                     7334621                       # TLB accesses on write requests
system.cpu.dtb.rdMisses                          1229                       # TLB misses on read requests
system.cpu.dtb.wrMisses                        116843                       # TLB misses on write requests
system.cpu.apic_clk_domain.clock                 8000                       # Clock period in ticks
system.cpu.interrupts.pwrStateResidencyTicks::UNDEFINED 114153298500                       # Cumulative time (in ticks) in various power states
system.cpu.itb.walker.pwrStateResidencyTicks::UNDEFINED 114153298500                       # Cumulative time (in ticks) in various power states
system.cpu.itb.rdAccesses                           0                       # TLB accesses on read requests
system.cpu.itb.wrAccesses                    63318174                       # TLB accesses on write requests
system.cpu.itb.rdMisses                             0                       # TLB misses on read requests
system.cpu.itb.wrMisses                            89                       # TLB misses on write requests
system.cpu.workload.numSyscalls                    33                       # Number of system calls
system.cpu.pwrStateResidencyTicks::ON    114153298500                       # Cumulative time (in ticks) in various power states
system.cpu.numCycles                        228306597                       # number of cpu cycles simulated
system.cpu.numWorkItemsStarted                      0                       # number of work items this cpu started
system.cpu.numWorkItemsCompleted                    0                       # number of work items this cpu completed
system.cpu.committedInsts                    47700244                       # Number of instructions committed
system.cpu.committedOps                      82046706                       # Number of ops (including micro ops) committed
system.cpu.num_int_alu_accesses              82043407                       # Number of integer alu accesses
system.cpu.num_fp_alu_accesses                   3447                       # Number of float alu accesses
system.cpu.num_vec_alu_accesses                     0                       # Number of vector alu accesses
system.cpu.num_func_calls                        1358                       # number of times a function call or return occured
system.cpu.num_conditional_control_insts      5151277                       # number of instructions that are conditional controls
system.cpu.num_int_insts                     82043407                       # number of integer instructions
system.cpu.num_fp_insts                          3447                       # number of float instructions
system.cpu.num_vec_insts                            0                       # number of vector instructions
system.cpu.num_int_register_reads           173517092                       # number of times the integer registers were read
system.cpu.num_int_register_writes           69557594                       # number of times the integer registers were written
system.cpu.num_fp_register_reads                 5525                       # number of times the floating registers were read
system.cpu.num_fp_register_writes                2660                       # number of times the floating registers were written
system.cpu.num_vec_register_reads                   0                       # number of times the vector registers were read
system.cpu.num_vec_register_writes                  0                       # number of times the vector registers were written
system.cpu.num_cc_register_reads             26790677                       # number of times the CC registers were read
system.cpu.num_cc_register_writes            31250784                       # number of times the CC registers were written
system.cpu.num_mem_refs                      31188612                       # number of memory refs
system.cpu.num_load_insts                    23853991                       # Number of load instructions
system.cpu.num_store_insts                    7334621                       # Number of store instructions
system.cpu.num_idle_cycles                          0                       # Number of idle cycles
system.cpu.num_busy_cycles                  228306597                       # Number of busy cycles
system.cpu.not_idle_fraction                        1                       # Percentage of non-idle cycles
system.cpu.idle_fraction                            0                       # Percentage of idle cycles
system.cpu.Branches                           5154587                       # Number of branches fetched
system.cpu.op_class::No_OpClass                  1287      0.00%      0.00% # Class of executed instruction
system.cpu.op_class::IntAlu                  50852257     61.98%     61.98% # Class of executed instruction
system.cpu.op_class::IntMult                     1192      0.00%     61.98% # Class of executed instruction
system.cpu.op_class::IntDiv                      1131      0.00%     61.98% # Class of executed instruction
system.cpu.op_class::FloatAdd                    2227      0.00%     61.99% # Class of executed instruction
system.cpu.op_class::FloatCmp                       0      0.00%     61.99% # Class of executed instruction
system.cpu.op_class::FloatCvt                       0      0.00%     61.99% # Class of executed instruction
system.cpu.op_class::FloatMult                      0      0.00%     61.99% # Class of executed instruction
system.cpu.op_class::FloatMultAcc                   0      0.00%     61.99% # Class of executed instruction
system.cpu.op_class::FloatDiv                       0      0.00%     61.99% # Class of executed instruction
system.cpu.op_class::FloatMisc                      0      0.00%     61.99% # Class of executed instruction
system.cpu.op_class::FloatSqrt                      0      0.00%     61.99% # Class of executed instruction
system.cpu.op_class::SimdAdd                        0      0.00%     61.99% # Class of executed instruction
system.cpu.op_class::SimdAddAcc                     0      0.00%     61.99% # Class of executed instruction
system.cpu.op_class::SimdAlu                        0      0.00%     61.99% # Class of executed instruction
system.cpu.op_class::SimdCmp                        0      0.00%     61.99% # Class of executed instruction
system.cpu.op_class::SimdCvt                        0      0.00%     61.99% # Class of executed instruction
system.cpu.op_class::SimdMisc                       0      0.00%     61.99% # Class of executed instruction
system.cpu.op_class::SimdMult                       0      0.00%     61.99% # Class of executed instruction
system.cpu.op_class::SimdMultAcc                    0      0.00%     61.99% # Class of executed instruction
system.cpu.op_class::SimdShift                      0      0.00%     61.99% # Class of executed instruction
system.cpu.op_class::SimdShiftAcc                   0      0.00%     61.99% # Class of executed instruction
system.cpu.op_class::SimdSqrt                       0      0.00%     61.99% # Class of executed instruction
system.cpu.op_class::SimdFloatAdd                   0      0.00%     61.99% # Class of executed instruction
system.cpu.op_class::SimdFloatAlu                   0      0.00%     61.99% # Class of executed instruction
system.cpu.op_class::SimdFloatCmp                   0      0.00%     61.99% # Class of executed instruction
system.cpu.op_class::SimdFloatCvt                   0      0.00%     61.99% # Class of executed instruction
system.cpu.op_class::SimdFloatDiv                   0      0.00%     61.99% # Class of executed instruction
system.cpu.op_class::SimdFloatMisc                  0      0.00%     61.99% # Class of executed instruction
system.cpu.op_class::SimdFloatMult                  0      0.00%     61.99% # Class of executed instruction
system.cpu.op_class::SimdFloatMultAcc               0      0.00%     61.99% # Class of executed instruction
system.cpu.op_class::SimdFloatSqrt                  0      0.00%     61.99% # Class of executed instruction
system.cpu.op_class::MemRead                 23853209     29.07%     91.06% # Class of executed instruction
system.cpu.op_class::MemWrite                 7334237      8.94%    100.00% # Class of executed instruction
system.cpu.op_class::FloatMemRead                 782      0.00%    100.00% # Class of executed instruction
system.cpu.op_class::FloatMemWrite                384      0.00%    100.00% # Class of executed instruction
system.cpu.op_class::IprAccess                      0      0.00%    100.00% # Class of executed instruction
system.cpu.op_class::InstPrefetch                   0      0.00%    100.00% # Class of executed instruction
system.cpu.op_class::total                   82046706                       # Class of executed instruction
system.cpu.dcache.tags.pwrStateResidencyTicks::UNDEFINED 114153298500                       # Cumulative time (in ticks) in various power states
system.cpu.dcache.tags.replacements           1292060                       # number of replacements
system.cpu.dcache.tags.tagsinuse          1022.685253                       # Cycle average of tags in use
system.cpu.dcache.tags.total_refs            29895537                       # Total number of references to valid blocks.
system.cpu.dcache.tags.sampled_refs           1293084                       # Sample count of references to valid blocks.
system.cpu.dcache.tags.avg_refs             23.119563                       # Average number of references to valid blocks.
system.cpu.dcache.tags.warmup_cycle         446189500                       # Cycle when the warmup percentage was hit.
system.cpu.dcache.tags.occ_blocks::cpu.data  1022.685253                       # Average occupied blocks per requestor
system.cpu.dcache.tags.occ_percent::cpu.data     0.998716                       # Average percentage of cache occupancy
system.cpu.dcache.tags.occ_percent::total     0.998716                       # Average percentage of cache occupancy
system.cpu.dcache.tags.occ_task_id_blocks::1024         1024                       # Occupied blocks per task id
system.cpu.dcache.tags.age_task_id_blocks_1024::0           35                       # Occupied blocks per task id
system.cpu.dcache.tags.age_task_id_blocks_1024::1          252                       # Occupied blocks per task id
system.cpu.dcache.tags.age_task_id_blocks_1024::2          737                       # Occupied blocks per task id
system.cpu.dcache.tags.occ_task_id_percent::1024            1                       # Percentage of cache occupancy per task id
system.cpu.dcache.tags.tag_accesses          32481705                       # Number of tag accesses
system.cpu.dcache.tags.data_accesses         32481705                       # Number of data accesses
system.cpu.dcache.pwrStateResidencyTicks::UNDEFINED 114153298500                       # Cumulative time (in ticks) in various power states
system.cpu.dcache.ReadReq_hits::cpu.data     23779273                       # number of ReadReq hits
system.cpu.dcache.ReadReq_hits::total        23779273                       # number of ReadReq hits
system.cpu.dcache.WriteReq_hits::cpu.data      6116264                       # number of WriteReq hits
system.cpu.dcache.WriteReq_hits::total        6116264                       # number of WriteReq hits
system.cpu.dcache.demand_hits::cpu.data      29895537                       # number of demand (read+write) hits
system.cpu.dcache.demand_hits::total         29895537                       # number of demand (read+write) hits
system.cpu.dcache.overall_hits::cpu.data     29895537                       # number of overall hits
system.cpu.dcache.overall_hits::total        29895537                       # number of overall hits
system.cpu.dcache.ReadReq_misses::cpu.data        74727                       # number of ReadReq misses
system.cpu.dcache.ReadReq_misses::total         74727                       # number of ReadReq misses
system.cpu.dcache.WriteReq_misses::cpu.data      1218357                       # number of WriteReq misses
system.cpu.dcache.WriteReq_misses::total      1218357                       # number of WriteReq misses
system.cpu.dcache.demand_misses::cpu.data      1293084                       # number of demand (read+write) misses
system.cpu.dcache.demand_misses::total        1293084                       # number of demand (read+write) misses
system.cpu.dcache.overall_misses::cpu.data      1293084                       # number of overall misses
system.cpu.dcache.overall_misses::total       1293084                       # number of overall misses
system.cpu.dcache.ReadReq_miss_latency::cpu.data   1098611500                       # number of ReadReq miss cycles
system.cpu.dcache.ReadReq_miss_latency::total   1098611500                       # number of ReadReq miss cycles
system.cpu.dcache.WriteReq_miss_latency::cpu.data  19773793000                       # number of WriteReq miss cycles
system.cpu.dcache.WriteReq_miss_latency::total  19773793000                       # number of WriteReq miss cycles
system.cpu.dcache.demand_miss_latency::cpu.data  20872404500                       # number of demand (read+write) miss cycles
system.cpu.dcache.demand_miss_latency::total  20872404500                       # number of demand (read+write) miss cycles
system.cpu.dcache.overall_miss_latency::cpu.data  20872404500                       # number of overall miss cycles
system.cpu.dcache.overall_miss_latency::total  20872404500                       # number of overall miss cycles
system.cpu.dcache.ReadReq_accesses::cpu.data     23854000                       # number of ReadReq accesses(hits+misses)
system.cpu.dcache.ReadReq_accesses::total     23854000                       # number of ReadReq accesses(hits+misses)
system.cpu.dcache.WriteReq_accesses::cpu.data      7334621                       # number of WriteReq accesses(hits+misses)
system.cpu.dcache.WriteReq_accesses::total      7334621                       # number of WriteReq accesses(hits+misses)
system.cpu.dcache.demand_accesses::cpu.data     31188621                       # number of demand (read+write) accesses
system.cpu.dcache.demand_accesses::total     31188621                       # number of demand (read+write) accesses
system.cpu.dcache.overall_accesses::cpu.data     31188621                       # number of overall (read+write) accesses
system.cpu.dcache.overall_accesses::total     31188621                       # number of overall (read+write) accesses
system.cpu.dcache.ReadReq_miss_rate::cpu.data     0.003133                       # miss rate for ReadReq accesses
system.cpu.dcache.ReadReq_miss_rate::total     0.003133                       # miss rate for ReadReq accesses
system.cpu.dcache.WriteReq_miss_rate::cpu.data     0.166110                       # miss rate for WriteReq accesses
system.cpu.dcache.WriteReq_miss_rate::total     0.166110                       # miss rate for WriteReq accesses
system.cpu.dcache.demand_miss_rate::cpu.data     0.041460                       # miss rate for demand accesses
system.cpu.dcache.demand_miss_rate::total     0.041460                       # miss rate for demand accesses
system.cpu.dcache.overall_miss_rate::cpu.data     0.041460                       # miss rate for overall accesses
system.cpu.dcache.overall_miss_rate::total     0.041460                       # miss rate for overall accesses
system.cpu.dcache.ReadReq_avg_miss_latency::cpu.data 14701.667403                       # average ReadReq miss latency
system.cpu.dcache.ReadReq_avg_miss_latency::total 14701.667403                       # average ReadReq miss latency
system.cpu.dcache.WriteReq_avg_miss_latency::cpu.data 16229.884180                       # average WriteReq miss latency
system.cpu.dcache.WriteReq_avg_miss_latency::total 16229.884180                       # average WriteReq miss latency
system.cpu.dcache.demand_avg_miss_latency::cpu.data 16141.568916                       # average overall miss latency
system.cpu.dcache.demand_avg_miss_latency::total 16141.568916                       # average overall miss latency
system.cpu.dcache.overall_avg_miss_latency::cpu.data 16141.568916                       # average overall miss latency
system.cpu.dcache.overall_avg_miss_latency::total 16141.568916                       # average overall miss latency
system.cpu.dcache.blocked_cycles::no_mshrs            0                       # number of cycles access was blocked
system.cpu.dcache.blocked_cycles::no_targets            0                       # number of cycles access was blocked
system.cpu.dcache.blocked::no_mshrs                 0                       # number of cycles access was blocked
system.cpu.dcache.blocked::no_targets               0                       # number of cycles access was blocked
system.cpu.dcache.avg_blocked_cycles::no_mshrs          nan                       # average number of cycles each access was blocked
system.cpu.dcache.avg_blocked_cycles::no_targets          nan                       # average number of cycles each access was blocked
system.cpu.dcache.writebacks::writebacks      1286046                       # number of writebacks
system.cpu.dcache.writebacks::total           1286046                       # number of writebacks
system.cpu.dcache.ReadReq_mshr_misses::cpu.data        74727                       # number of ReadReq MSHR misses
system.cpu.dcache.ReadReq_mshr_misses::total        74727                       # number of ReadReq MSHR misses
system.cpu.dcache.WriteReq_mshr_misses::cpu.data      1218357                       # number of WriteReq MSHR misses
system.cpu.dcache.WriteReq_mshr_misses::total      1218357                       # number of WriteReq MSHR misses
system.cpu.dcache.demand_mshr_misses::cpu.data      1293084                       # number of demand (read+write) MSHR misses
system.cpu.dcache.demand_mshr_misses::total      1293084                       # number of demand (read+write) MSHR misses
system.cpu.dcache.overall_mshr_misses::cpu.data      1293084                       # number of overall MSHR misses
system.cpu.dcache.overall_mshr_misses::total      1293084                       # number of overall MSHR misses
system.cpu.dcache.ReadReq_mshr_miss_latency::cpu.data   1023884500                       # number of ReadReq MSHR miss cycles
system.cpu.dcache.ReadReq_mshr_miss_latency::total   1023884500                       # number of ReadReq MSHR miss cycles
system.cpu.dcache.WriteReq_mshr_miss_latency::cpu.data  18555436000                       # number of WriteReq MSHR miss cycles
system.cpu.dcache.WriteReq_mshr_miss_latency::total  18555436000                       # number of WriteReq MSHR miss cycles
system.cpu.dcache.demand_mshr_miss_latency::cpu.data  19579320500                       # number of demand (read+write) MSHR miss cycles
system.cpu.dcache.demand_mshr_miss_latency::total  19579320500                       # number of demand (read+write) MSHR miss cycles
system.cpu.dcache.overall_mshr_miss_latency::cpu.data  19579320500                       # number of overall MSHR miss cycles
system.cpu.dcache.overall_mshr_miss_latency::total  19579320500                       # number of overall MSHR miss cycles
system.cpu.dcache.ReadReq_mshr_miss_rate::cpu.data     0.003133                       # mshr miss rate for ReadReq accesses
system.cpu.dcache.ReadReq_mshr_miss_rate::total     0.003133                       # mshr miss rate for ReadReq accesses
system.cpu.dcache.WriteReq_mshr_miss_rate::cpu.data     0.166110                       # mshr miss rate for WriteReq accesses
system.cpu.dcache.WriteReq_mshr_miss_rate::total     0.166110                       # mshr miss rate for WriteReq accesses
system.cpu.dcache.demand_mshr_miss_rate::cpu.data     0.041460                       # mshr miss rate for demand accesses
system.cpu.dcache.demand_mshr_miss_rate::total     0.041460                       # mshr miss rate for demand accesses
system.cpu.dcache.overall_mshr_miss_rate::cpu.data     0.041460                       # mshr miss rate for overall accesses
system.cpu.dcache.overall_mshr_miss_rate::total     0.041460                       # mshr miss rate for overall accesses
system.cpu.dcache.ReadReq_avg_mshr_miss_latency::cpu.data 13701.667403                       # average ReadReq mshr miss latency
system.cpu.dcache.ReadReq_avg_mshr_miss_latency::total 13701.667403                       # average ReadReq mshr miss latency
system.cpu.dcache.WriteReq_avg_mshr_miss_latency::cpu.data 15229.884180                       # average WriteReq mshr miss latency
system.cpu.dcache.WriteReq_avg_mshr_miss_latency::total 15229.884180                       # average WriteReq mshr miss latency
system.cpu.dcache.demand_avg_mshr_miss_latency::cpu.data 15141.568916                       # average overall mshr miss latency
system.cpu.dcache.demand_avg_mshr_miss_latency::total 15141.568916                       # average overall mshr miss latency
system.cpu.dcache.overall_avg_mshr_miss_latency::cpu.data 15141.568916                       # average overall mshr miss latency
system.cpu.dcache.overall_avg_mshr_miss_latency::total 15141.568916                       # average overall mshr miss latency
system.cpu.icache.tags.pwrStateResidencyTicks::UNDEFINED 114153298500                       # Cumulative time (in ticks) in various power states
system.cpu.icache.tags.replacements               508                       # number of replacements
system.cpu.icache.tags.tagsinuse           423.462510                       # Cycle average of tags in use
system.cpu.icache.tags.total_refs            63317220                       # Total number of references to valid blocks.
system.cpu.icache.tags.sampled_refs               954                       # Sample count of references to valid blocks.
system.cpu.icache.tags.avg_refs          66370.251572                       # Average number of references to valid blocks.
system.cpu.icache.tags.warmup_cycle                 0                       # Cycle when the warmup percentage was hit.
system.cpu.icache.tags.occ_blocks::cpu.inst   423.462510                       # Average occupied blocks per requestor
system.cpu.icache.tags.occ_percent::cpu.inst     0.827075                       # Average percentage of cache occupancy
system.cpu.icache.tags.occ_percent::total     0.827075                       # Average percentage of cache occupancy
system.cpu.icache.tags.occ_task_id_blocks::1024          446                       # Occupied blocks per task id
system.cpu.icache.tags.age_task_id_blocks_1024::0           69                       # Occupied blocks per task id
system.cpu.icache.tags.age_task_id_blocks_1024::1           93                       # Occupied blocks per task id
system.cpu.icache.tags.age_task_id_blocks_1024::4          284                       # Occupied blocks per task id
system.cpu.icache.tags.occ_task_id_percent::1024     0.871094                       # Percentage of cache occupancy per task id
system.cpu.icache.tags.tag_accesses          63319128                       # Number of tag accesses
system.cpu.icache.tags.data_accesses         63319128                       # Number of data accesses
system.cpu.icache.pwrStateResidencyTicks::UNDEFINED 114153298500                       # Cumulative time (in ticks) in various power states
system.cpu.icache.ReadReq_hits::cpu.inst     63317220                       # number of ReadReq hits
system.cpu.icache.ReadReq_hits::total        63317220                       # number of ReadReq hits
system.cpu.icache.demand_hits::cpu.inst      63317220                       # number of demand (read+write) hits
system.cpu.icache.demand_hits::total         63317220                       # number of demand (read+write) hits
system.cpu.icache.overall_hits::cpu.inst     63317220                       # number of overall hits
system.cpu.icache.overall_hits::total        63317220                       # number of overall hits
system.cpu.icache.ReadReq_misses::cpu.inst          954                       # number of ReadReq misses
system.cpu.icache.ReadReq_misses::total           954                       # number of ReadReq misses
system.cpu.icache.demand_misses::cpu.inst          954                       # number of demand (read+write) misses
system.cpu.icache.demand_misses::total            954                       # number of demand (read+write) misses
system.cpu.icache.overall_misses::cpu.inst          954                       # number of overall misses
system.cpu.icache.overall_misses::total           954                       # number of overall misses
system.cpu.icache.ReadReq_miss_latency::cpu.inst     68144500                       # number of ReadReq miss cycles
system.cpu.icache.ReadReq_miss_latency::total     68144500                       # number of ReadReq miss cycles
system.cpu.icache.demand_miss_latency::cpu.inst     68144500                       # number of demand (read+write) miss cycles
system.cpu.icache.demand_miss_latency::total     68144500                       # number of demand (read+write) miss cycles
system.cpu.icache.overall_miss_latency::cpu.inst     68144500                       # number of overall miss cycles
system.cpu.icache.overall_miss_latency::total     68144500                       # number of overall miss cycles
system.cpu.icache.ReadReq_accesses::cpu.inst     63318174                       # number of ReadReq accesses(hits+misses)
system.cpu.icache.ReadReq_accesses::total     63318174                       # number of ReadReq accesses(hits+misses)
system.cpu.icache.demand_accesses::cpu.inst     63318174                       # number of demand (read+write) accesses
system.cpu.icache.demand_accesses::total     63318174                       # number of demand (read+write) accesses
system.cpu.icache.overall_accesses::cpu.inst     63318174                       # number of overall (read+write) accesses
system.cpu.icache.overall_accesses::total     63318174                       # number of overall (read+write) accesses
system.cpu.icache.ReadReq_miss_rate::cpu.inst     0.000015                       # miss rate for ReadReq accesses
system.cpu.icache.ReadReq_miss_rate::total     0.000015                       # miss rate for ReadReq accesses
system.cpu.icache.demand_miss_rate::cpu.inst     0.000015                       # miss rate for demand accesses
system.cpu.icache.demand_miss_rate::total     0.000015                       # miss rate for demand accesses
system.cpu.icache.overall_miss_rate::cpu.inst     0.000015                       # miss rate for overall accesses
system.cpu.icache.overall_miss_rate::total     0.000015                       # miss rate for overall accesses
system.cpu.icache.ReadReq_avg_miss_latency::cpu.inst 71430.293501                       # average ReadReq miss latency
system.cpu.icache.ReadReq_avg_miss_latency::total 71430.293501                       # average ReadReq miss latency
system.cpu.icache.demand_avg_miss_latency::cpu.inst 71430.293501                       # average overall miss latency
system.cpu.icache.demand_avg_miss_latency::total 71430.293501                       # average overall miss latency
system.cpu.icache.overall_avg_miss_latency::cpu.inst 71430.293501                       # average overall miss latency
system.cpu.icache.overall_avg_miss_latency::total 71430.293501                       # average overall miss latency
system.cpu.icache.blocked_cycles::no_mshrs            0                       # number of cycles access was blocked
system.cpu.icache.blocked_cycles::no_targets            0                       # number of cycles access was blocked
system.cpu.icache.blocked::no_mshrs                 0                       # number of cycles access was blocked
system.cpu.icache.blocked::no_targets               0                       # number of cycles access was blocked
system.cpu.icache.avg_blocked_cycles::no_mshrs          nan                       # average number of cycles each access was blocked
system.cpu.icache.avg_blocked_cycles::no_targets          nan                       # average number of cycles each access was blocked
system.cpu.icache.ReadReq_mshr_misses::cpu.inst          954                       # number of ReadReq MSHR misses
system.cpu.icache.ReadReq_mshr_misses::total          954                       # number of ReadReq MSHR misses
system.cpu.icache.demand_mshr_misses::cpu.inst          954                       # number of demand (read+write) MSHR misses
system.cpu.icache.demand_mshr_misses::total          954                       # number of demand (read+write) MSHR misses
system.cpu.icache.overall_mshr_misses::cpu.inst          954                       # number of overall MSHR misses
system.cpu.icache.overall_mshr_misses::total          954                       # number of overall MSHR misses
system.cpu.icache.ReadReq_mshr_miss_latency::cpu.inst     67190500                       # number of ReadReq MSHR miss cycles
system.cpu.icache.ReadReq_mshr_miss_latency::total     67190500                       # number of ReadReq MSHR miss cycles
system.cpu.icache.demand_mshr_miss_latency::cpu.inst     67190500                       # number of demand (read+write) MSHR miss cycles
system.cpu.icache.demand_mshr_miss_latency::total     67190500                       # number of demand (read+write) MSHR miss cycles
system.cpu.icache.overall_mshr_miss_latency::cpu.inst     67190500                       # number of overall MSHR miss cycles
system.cpu.icache.overall_mshr_miss_latency::total     67190500                       # number of overall MSHR miss cycles
system.cpu.icache.ReadReq_mshr_miss_rate::cpu.inst     0.000015                       # mshr miss rate for ReadReq accesses
system.cpu.icache.ReadReq_mshr_miss_rate::total     0.000015                       # mshr miss rate for ReadReq accesses
system.cpu.icache.demand_mshr_miss_rate::cpu.inst     0.000015                       # mshr miss rate for demand accesses
system.cpu.icache.demand_mshr_miss_rate::total     0.000015                       # mshr miss rate for demand accesses
system.cpu.icache.overall_mshr_miss_rate::cpu.inst     0.000015                       # mshr miss rate for overall accesses
system.cpu.icache.overall_mshr_miss_rate::total     0.000015                       # mshr miss rate for overall accesses
system.cpu.icache.ReadReq_avg_mshr_miss_latency::cpu.inst 70430.293501                       # average ReadReq mshr miss latency
system.cpu.icache.ReadReq_avg_mshr_miss_latency::total 70430.293501                       # average ReadReq mshr miss latency
system.cpu.icache.demand_avg_mshr_miss_latency::cpu.inst 70430.293501                       # average overall mshr miss latency
system.cpu.icache.demand_avg_mshr_miss_latency::total 70430.293501                       # average overall mshr miss latency
system.cpu.icache.overall_avg_mshr_miss_latency::cpu.inst 70430.293501                       # average overall mshr miss latency
system.cpu.icache.overall_avg_mshr_miss_latency::total 70430.293501                       # average overall mshr miss latency
system.l2bus.snoop_filter.tot_requests        2586606                       # Total number of requests made to the snoop filter.
system.l2bus.snoop_filter.hit_single_requests      1292569                       # Number of requests hitting in the snoop filter with a single holder of the requested data.
system.l2bus.snoop_filter.hit_multi_requests            2                       # Number of requests hitting in the snoop filter with multiple (>1) holders of the requested data.
system.l2bus.snoop_filter.tot_snoops              187                       # Total number of snoops made to the snoop filter.
system.l2bus.snoop_filter.hit_single_snoops          187                       # Number of snoops hitting in the snoop filter with a single holder of the requested data.
system.l2bus.snoop_filter.hit_multi_snoops            0                       # Number of snoops hitting in the snoop filter with multiple (>1) holders of the requested data.
system.l2bus.pwrStateResidencyTicks::UNDEFINED 114153298500                       # Cumulative time (in ticks) in various power states
system.l2bus.trans_dist::ReadResp               75681                       # Transaction distribution
system.l2bus.trans_dist::WritebackDirty       1286522                       # Transaction distribution
system.l2bus.trans_dist::CleanEvict              8539                       # Transaction distribution
system.l2bus.trans_dist::ReadExReq            1218357                       # Transaction distribution
system.l2bus.trans_dist::ReadExResp           1218357                       # Transaction distribution
system.l2bus.trans_dist::ReadSharedReq          75681                       # Transaction distribution
system.l2bus.pkt_count_system.cpu.icache.mem_side::system.l2cache.cpu_side         2416                       # Packet count per connected master and slave (bytes)
system.l2bus.pkt_count_system.cpu.dcache.mem_side::system.l2cache.cpu_side      3878228                       # Packet count per connected master and slave (bytes)
system.l2bus.pkt_count::total                 3880644                       # Packet count per connected master and slave (bytes)
system.l2bus.pkt_size_system.cpu.icache.mem_side::system.l2cache.cpu_side        61056                       # Cumulative packet size per connected master and slave (bytes)
system.l2bus.pkt_size_system.cpu.dcache.mem_side::system.l2cache.cpu_side    165064320                       # Cumulative packet size per connected master and slave (bytes)
system.l2bus.pkt_size::total                165125376                       # Cumulative packet size per connected master and slave (bytes)
system.l2bus.snoops                              2493                       # Total snoops (count)
system.l2bus.snoopTraffic                       30464                       # Total snoop traffic (bytes)
system.l2bus.snoop_fanout::samples            1296531                       # Request fanout histogram
system.l2bus.snoop_fanout::mean              0.000147                       # Request fanout histogram
system.l2bus.snoop_fanout::stdev             0.012105                       # Request fanout histogram
system.l2bus.snoop_fanout::underflows               0      0.00%      0.00% # Request fanout histogram
system.l2bus.snoop_fanout::0                  1296341     99.99%     99.99% # Request fanout histogram
system.l2bus.snoop_fanout::1                      190      0.01%    100.00% # Request fanout histogram
system.l2bus.snoop_fanout::2                        0      0.00%    100.00% # Request fanout histogram
system.l2bus.snoop_fanout::overflows                0      0.00%    100.00% # Request fanout histogram
system.l2bus.snoop_fanout::min_value                0                       # Request fanout histogram
system.l2bus.snoop_fanout::max_value                1                       # Request fanout histogram
system.l2bus.snoop_fanout::total              1296531                       # Request fanout histogram
system.l2bus.reqLayer0.occupancy           2579349000                       # Layer occupancy (ticks)
system.l2bus.reqLayer0.utilization                2.3                       # Layer utilization (%)
system.l2bus.respLayer0.occupancy             1431000                       # Layer occupancy (ticks)
system.l2bus.respLayer0.utilization               0.0                       # Layer utilization (%)
system.l2bus.respLayer1.occupancy          1939626000                       # Layer occupancy (ticks)
system.l2bus.respLayer1.utilization               1.7                       # Layer utilization (%)
system.l2cache.tags.pwrStateResidencyTicks::UNDEFINED 114153298500                       # Cumulative time (in ticks) in various power states
system.l2cache.tags.replacements                 2493                       # number of replacements
system.l2cache.tags.tagsinuse            56521.805997                       # Cycle average of tags in use
system.l2cache.tags.total_refs                2520695                       # Total number of references to valid blocks.
system.l2cache.tags.sampled_refs                65850                       # Sample count of references to valid blocks.
system.l2cache.tags.avg_refs                38.279347                       # Average number of references to valid blocks.
system.l2cache.tags.warmup_cycle                    0                       # Cycle when the warmup percentage was hit.
system.l2cache.tags.occ_blocks::cpu.inst   488.871355                       # Average occupied blocks per requestor
system.l2cache.tags.occ_blocks::cpu.data 56032.934643                       # Average occupied blocks per requestor
system.l2cache.tags.occ_percent::cpu.inst     0.007460                       # Average percentage of cache occupancy
system.l2cache.tags.occ_percent::cpu.data     0.854995                       # Average percentage of cache occupancy
system.l2cache.tags.occ_percent::total       0.862454                       # Average percentage of cache occupancy
system.l2cache.tags.occ_task_id_blocks::1024        63357                       # Occupied blocks per task id
system.l2cache.tags.age_task_id_blocks_1024::0           88                       # Occupied blocks per task id
system.l2cache.tags.age_task_id_blocks_1024::1          189                       # Occupied blocks per task id
system.l2cache.tags.age_task_id_blocks_1024::3            3                       # Occupied blocks per task id
system.l2cache.tags.age_task_id_blocks_1024::4        63077                       # Occupied blocks per task id
system.l2cache.tags.occ_task_id_percent::1024     0.966751                       # Percentage of cache occupancy per task id
system.l2cache.tags.tag_accesses             20758682                       # Number of tag accesses
system.l2cache.tags.data_accesses            20758682                       # Number of data accesses
system.l2cache.pwrStateResidencyTicks::UNDEFINED 114153298500                       # Cumulative time (in ticks) in various power states
system.l2cache.WritebackDirty_hits::writebacks      1286046                       # number of WritebackDirty hits
system.l2cache.WritebackDirty_hits::total      1286046                       # number of WritebackDirty hits
system.l2cache.ReadExReq_hits::cpu.data       1155291                       # number of ReadExReq hits
system.l2cache.ReadExReq_hits::total          1155291                       # number of ReadExReq hits
system.l2cache.ReadSharedReq_hits::cpu.inst           96                       # number of ReadSharedReq hits
system.l2cache.ReadSharedReq_hits::cpu.data        72801                       # number of ReadSharedReq hits
system.l2cache.ReadSharedReq_hits::total        72897                       # number of ReadSharedReq hits
system.l2cache.demand_hits::cpu.inst               96                       # number of demand (read+write) hits
system.l2cache.demand_hits::cpu.data          1228092                       # number of demand (read+write) hits
system.l2cache.demand_hits::total             1228188                       # number of demand (read+write) hits
system.l2cache.overall_hits::cpu.inst              96                       # number of overall hits
system.l2cache.overall_hits::cpu.data         1228092                       # number of overall hits
system.l2cache.overall_hits::total            1228188                       # number of overall hits
system.l2cache.ReadExReq_misses::cpu.data        63066                       # number of ReadExReq misses
system.l2cache.ReadExReq_misses::total          63066                       # number of ReadExReq misses
system.l2cache.ReadSharedReq_misses::cpu.inst          858                       # number of ReadSharedReq misses
system.l2cache.ReadSharedReq_misses::cpu.data         1926                       # number of ReadSharedReq misses
system.l2cache.ReadSharedReq_misses::total         2784                       # number of ReadSharedReq misses
system.l2cache.demand_misses::cpu.inst            858                       # number of demand (read+write) misses
system.l2cache.demand_misses::cpu.data          64992                       # number of demand (read+write) misses
system.l2cache.demand_misses::total             65850                       # number of demand (read+write) misses
system.l2cache.overall_misses::cpu.inst           858                       # number of overall misses
system.l2cache.overall_misses::cpu.data         64992                       # number of overall misses
system.l2cache.overall_misses::total            65850                       # number of overall misses
system.l2cache.ReadExReq_miss_latency::cpu.data   4597345000                       # number of ReadExReq miss cycles
system.l2cache.ReadExReq_miss_latency::total   4597345000                       # number of ReadExReq miss cycles
system.l2cache.ReadSharedReq_miss_latency::cpu.inst     64746000                       # number of ReadSharedReq miss cycles
system.l2cache.ReadSharedReq_miss_latency::cpu.data    147382500                       # number of ReadSharedReq miss cycles
system.l2cache.ReadSharedReq_miss_latency::total    212128500                       # number of ReadSharedReq miss cycles
system.l2cache.demand_miss_latency::cpu.inst     64746000                       # number of demand (read+write) miss cycles
system.l2cache.demand_miss_latency::cpu.data   4744727500                       # number of demand (read+write) miss cycles
system.l2cache.demand_miss_latency::total   4809473500                       # number of demand (read+write) miss cycles
system.l2cache.overall_miss_latency::cpu.inst     64746000                       # number of overall miss cycles
system.l2cache.overall_miss_latency::cpu.data   4744727500                       # number of overall miss cycles
system.l2cache.overall_miss_latency::total   4809473500                       # number of overall miss cycles
system.l2cache.WritebackDirty_accesses::writebacks      1286046                       # number of WritebackDirty accesses(hits+misses)
system.l2cache.WritebackDirty_accesses::total      1286046                       # number of WritebackDirty accesses(hits+misses)
system.l2cache.ReadExReq_accesses::cpu.data      1218357                       # number of ReadExReq accesses(hits+misses)
system.l2cache.ReadExReq_accesses::total      1218357                       # number of ReadExReq accesses(hits+misses)
system.l2cache.ReadSharedReq_accesses::cpu.inst          954                       # number of ReadSharedReq accesses(hits+misses)
system.l2cache.ReadSharedReq_accesses::cpu.data        74727                       # number of ReadSharedReq accesses(hits+misses)
system.l2cache.ReadSharedReq_accesses::total        75681                       # number of ReadSharedReq accesses(hits+misses)
system.l2cache.demand_accesses::cpu.inst          954                       # number of demand (read+write) accesses
system.l2cache.demand_accesses::cpu.data      1293084                       # number of demand (read+write) accesses
system.l2cache.demand_accesses::total         1294038                       # number of demand (read+write) accesses
system.l2cache.overall_accesses::cpu.inst          954                       # number of overall (read+write) accesses
system.l2cache.overall_accesses::cpu.data      1293084                       # number of overall (read+write) accesses
system.l2cache.overall_accesses::total        1294038                       # number of overall (read+write) accesses
system.l2cache.ReadExReq_miss_rate::cpu.data     0.051763                       # miss rate for ReadExReq accesses
system.l2cache.ReadExReq_miss_rate::total     0.051763                       # miss rate for ReadExReq accesses
system.l2cache.ReadSharedReq_miss_rate::cpu.inst     0.899371                       # miss rate for ReadSharedReq accesses
system.l2cache.ReadSharedReq_miss_rate::cpu.data     0.025774                       # miss rate for ReadSharedReq accesses
system.l2cache.ReadSharedReq_miss_rate::total     0.036786                       # miss rate for ReadSharedReq accesses
system.l2cache.demand_miss_rate::cpu.inst     0.899371                       # miss rate for demand accesses
system.l2cache.demand_miss_rate::cpu.data     0.050261                       # miss rate for demand accesses
system.l2cache.demand_miss_rate::total       0.050887                       # miss rate for demand accesses
system.l2cache.overall_miss_rate::cpu.inst     0.899371                       # miss rate for overall accesses
system.l2cache.overall_miss_rate::cpu.data     0.050261                       # miss rate for overall accesses
system.l2cache.overall_miss_rate::total      0.050887                       # miss rate for overall accesses
system.l2cache.ReadExReq_avg_miss_latency::cpu.data 72897.361494                       # average ReadExReq miss latency
system.l2cache.ReadExReq_avg_miss_latency::total 72897.361494                       # average ReadExReq miss latency
system.l2cache.ReadSharedReq_avg_miss_latency::cpu.inst 75461.538462                       # average ReadSharedReq miss latency
system.l2cache.ReadSharedReq_avg_miss_latency::cpu.data 76522.585670                       # average ReadSharedReq miss latency
system.l2cache.ReadSharedReq_avg_miss_latency::total 76195.581897                       # average ReadSharedReq miss latency
system.l2cache.demand_avg_miss_latency::cpu.inst 75461.538462                       # average overall miss latency
system.l2cache.demand_avg_miss_latency::cpu.data 73004.792898                       # average overall miss latency
system.l2cache.demand_avg_miss_latency::total 73036.803341                       # average overall miss latency
system.l2cache.overall_avg_miss_latency::cpu.inst 75461.538462                       # average overall miss latency
system.l2cache.overall_avg_miss_latency::cpu.data 73004.792898                       # average overall miss latency
system.l2cache.overall_avg_miss_latency::total 73036.803341                       # average overall miss latency
system.l2cache.blocked_cycles::no_mshrs             0                       # number of cycles access was blocked
system.l2cache.blocked_cycles::no_targets            0                       # number of cycles access was blocked
system.l2cache.blocked::no_mshrs                    0                       # number of cycles access was blocked
system.l2cache.blocked::no_targets                  0                       # number of cycles access was blocked
system.l2cache.avg_blocked_cycles::no_mshrs          nan                       # average number of cycles each access was blocked
system.l2cache.avg_blocked_cycles::no_targets          nan                       # average number of cycles each access was blocked
system.l2cache.writebacks::writebacks             476                       # number of writebacks
system.l2cache.writebacks::total                  476                       # number of writebacks
system.l2cache.CleanEvict_mshr_misses::writebacks           59                       # number of CleanEvict MSHR misses
system.l2cache.CleanEvict_mshr_misses::total           59                       # number of CleanEvict MSHR misses
system.l2cache.ReadExReq_mshr_misses::cpu.data        63066                       # number of ReadExReq MSHR misses
system.l2cache.ReadExReq_mshr_misses::total        63066                       # number of ReadExReq MSHR misses
system.l2cache.ReadSharedReq_mshr_misses::cpu.inst          858                       # number of ReadSharedReq MSHR misses
system.l2cache.ReadSharedReq_mshr_misses::cpu.data         1926                       # number of ReadSharedReq MSHR misses
system.l2cache.ReadSharedReq_mshr_misses::total         2784                       # number of ReadSharedReq MSHR misses
system.l2cache.demand_mshr_misses::cpu.inst          858                       # number of demand (read+write) MSHR misses
system.l2cache.demand_mshr_misses::cpu.data        64992                       # number of demand (read+write) MSHR misses
system.l2cache.demand_mshr_misses::total        65850                       # number of demand (read+write) MSHR misses
system.l2cache.overall_mshr_misses::cpu.inst          858                       # number of overall MSHR misses
system.l2cache.overall_mshr_misses::cpu.data        64992                       # number of overall MSHR misses
system.l2cache.overall_mshr_misses::total        65850                       # number of overall MSHR misses
system.l2cache.ReadExReq_mshr_miss_latency::cpu.data   3966685000                       # number of ReadExReq MSHR miss cycles
system.l2cache.ReadExReq_mshr_miss_latency::total   3966685000                       # number of ReadExReq MSHR miss cycles
system.l2cache.ReadSharedReq_mshr_miss_latency::cpu.inst     56166000                       # number of ReadSharedReq MSHR miss cycles
system.l2cache.ReadSharedReq_mshr_miss_latency::cpu.data    128122500                       # number of ReadSharedReq MSHR miss cycles
system.l2cache.ReadSharedReq_mshr_miss_latency::total    184288500                       # number of ReadSharedReq MSHR miss cycles
system.l2cache.demand_mshr_miss_latency::cpu.inst     56166000                       # number of demand (read+write) MSHR miss cycles
system.l2cache.demand_mshr_miss_latency::cpu.data   4094807500                       # number of demand (read+write) MSHR miss cycles
system.l2cache.demand_mshr_miss_latency::total   4150973500                       # number of demand (read+write) MSHR miss cycles
system.l2cache.overall_mshr_miss_latency::cpu.inst     56166000                       # number of overall MSHR miss cycles
system.l2cache.overall_mshr_miss_latency::cpu.data   4094807500                       # number of overall MSHR miss cycles
system.l2cache.overall_mshr_miss_latency::total   4150973500                       # number of overall MSHR miss cycles
system.l2cache.CleanEvict_mshr_miss_rate::writebacks          inf                       # mshr miss rate for CleanEvict accesses
system.l2cache.CleanEvict_mshr_miss_rate::total          inf                       # mshr miss rate for CleanEvict accesses
system.l2cache.ReadExReq_mshr_miss_rate::cpu.data     0.051763                       # mshr miss rate for ReadExReq accesses
system.l2cache.ReadExReq_mshr_miss_rate::total     0.051763                       # mshr miss rate for ReadExReq accesses
system.l2cache.ReadSharedReq_mshr_miss_rate::cpu.inst     0.899371                       # mshr miss rate for ReadSharedReq accesses
system.l2cache.ReadSharedReq_mshr_miss_rate::cpu.data     0.025774                       # mshr miss rate for ReadSharedReq accesses
system.l2cache.ReadSharedReq_mshr_miss_rate::total     0.036786                       # mshr miss rate for ReadSharedReq accesses
system.l2cache.demand_mshr_miss_rate::cpu.inst     0.899371                       # mshr miss rate for demand accesses
system.l2cache.demand_mshr_miss_rate::cpu.data     0.050261                       # mshr miss rate for demand accesses
system.l2cache.demand_mshr_miss_rate::total     0.050887                       # mshr miss rate for demand accesses
system.l2cache.overall_mshr_miss_rate::cpu.inst     0.899371                       # mshr miss rate for overall accesses
system.l2cache.overall_mshr_miss_rate::cpu.data     0.050261                       # mshr miss rate for overall accesses
system.l2cache.overall_mshr_miss_rate::total     0.050887                       # mshr miss rate for overall accesses
system.l2cache.ReadExReq_avg_mshr_miss_latency::cpu.data 62897.361494                       # average ReadExReq mshr miss latency
system.l2cache.ReadExReq_avg_mshr_miss_latency::total 62897.361494                       # average ReadExReq mshr miss latency
system.l2cache.ReadSharedReq_avg_mshr_miss_latency::cpu.inst 65461.538462                       # average ReadSharedReq mshr miss latency
system.l2cache.ReadSharedReq_avg_mshr_miss_latency::cpu.data 66522.585670                       # average ReadSharedReq mshr miss latency
system.l2cache.ReadSharedReq_avg_mshr_miss_latency::total 66195.581897                       # average ReadSharedReq mshr miss latency
system.l2cache.demand_avg_mshr_miss_latency::cpu.inst 65461.538462                       # average overall mshr miss latency
system.l2cache.demand_avg_mshr_miss_latency::cpu.data 63004.792898                       # average overall mshr miss latency
system.l2cache.demand_avg_mshr_miss_latency::total 63036.803341                       # average overall mshr miss latency
system.l2cache.overall_avg_mshr_miss_latency::cpu.inst 65461.538462                       # average overall mshr miss latency
system.l2cache.overall_avg_mshr_miss_latency::cpu.data 63004.792898                       # average overall mshr miss latency
system.l2cache.overall_avg_mshr_miss_latency::total 63036.803341                       # average overall mshr miss latency
system.membus.snoop_filter.tot_requests         68214                       # Total number of requests made to the snoop filter.
system.membus.snoop_filter.hit_single_requests         2364                       # Number of requests hitting in the snoop filter with a single holder of the requested data.
system.membus.snoop_filter.hit_multi_requests            0                       # Number of requests hitting in the snoop filter with multiple (>1) holders of the requested data.
system.membus.snoop_filter.tot_snoops               0                       # Total number of snoops made to the snoop filter.
system.membus.snoop_filter.hit_single_snoops            0                       # Number of snoops hitting in the snoop filter with a single holder of the requested data.
system.membus.snoop_filter.hit_multi_snoops            0                       # Number of snoops hitting in the snoop filter with multiple (>1) holders of the requested data.
system.membus.pwrStateResidencyTicks::UNDEFINED 114153298500                       # Cumulative time (in ticks) in various power states
system.membus.trans_dist::ReadResp               2784                       # Transaction distribution
system.membus.trans_dist::WritebackDirty          476                       # Transaction distribution
system.membus.trans_dist::CleanEvict             1888                       # Transaction distribution
system.membus.trans_dist::ReadExReq             63066                       # Transaction distribution
system.membus.trans_dist::ReadExResp            63066                       # Transaction distribution
system.membus.trans_dist::ReadSharedReq          2784                       # Transaction distribution
system.membus.pkt_count_system.l2cache.mem_side::system.mem_ctrl.port       134064                       # Packet count per connected master and slave (bytes)
system.membus.pkt_count_system.l2cache.mem_side::total       134064                       # Packet count per connected master and slave (bytes)
system.membus.pkt_count::total                 134064                       # Packet count per connected master and slave (bytes)
system.membus.pkt_size_system.l2cache.mem_side::system.mem_ctrl.port      4244864                       # Cumulative packet size per connected master and slave (bytes)
system.membus.pkt_size_system.l2cache.mem_side::total      4244864                       # Cumulative packet size per connected master and slave (bytes)
system.membus.pkt_size::total                 4244864                       # Cumulative packet size per connected master and slave (bytes)
system.membus.snoops                                0                       # Total snoops (count)
system.membus.snoopTraffic                          0                       # Total snoop traffic (bytes)
system.membus.snoop_fanout::samples             65850                       # Request fanout histogram
system.membus.snoop_fanout::mean                    0                       # Request fanout histogram
system.membus.snoop_fanout::stdev                   0                       # Request fanout histogram
system.membus.snoop_fanout::underflows              0      0.00%      0.00% # Request fanout histogram
system.membus.snoop_fanout::0                   65850    100.00%    100.00% # Request fanout histogram
system.membus.snoop_fanout::1                       0      0.00%    100.00% # Request fanout histogram
system.membus.snoop_fanout::overflows               0      0.00%    100.00% # Request fanout histogram
system.membus.snoop_fanout::min_value               0                       # Request fanout histogram
system.membus.snoop_fanout::max_value               0                       # Request fanout histogram
system.membus.snoop_fanout::total               65850                       # Request fanout histogram
system.membus.reqLayer2.occupancy            35059000                       # Layer occupancy (ticks)
system.membus.reqLayer2.utilization               0.0                       # Layer utilization (%)
system.membus.respLayer0.occupancy          175002218                       # Layer occupancy (ticks)
system.membus.respLayer0.utilization              0.2                       # Layer utilization (%)

---------- End Simulation Statistics   ----------
