
---------- Begin Simulation Statistics ----------
sim_seconds                                  0.000601                       # Number of seconds simulated
sim_ticks                                   600514774                       # Number of ticks simulated
final_tick                                  600514774                       # Number of ticks from beginning of simulation (restored from checkpoints and never reset)
sim_freq                                 1000000000000                       # Frequency of simulated ticks
host_inst_rate                                 152336                       # Simulator instruction rate (inst/s)
host_op_rate                                   279069                       # Simulator op (including micro ops) rate (op/s)
host_tick_rate                              507410302                       # Simulator tick rate (ticks/s)
host_mem_usage                                 683016                       # Number of bytes of host memory used
host_seconds                                     1.18                       # Real time elapsed on the host
sim_insts                                      180286                       # Number of instructions simulated
sim_ops                                        330274                       # Number of ops (including micro ops) simulated
system.clk_domain.voltage_domain.voltage            1                       # Voltage in Volts
system.clk_domain.clock                           667                       # Clock period in ticks
system.mem_ctrl.pwrStateResidencyTicks::UNDEFINED    600514774                       # Cumulative time (in ticks) in various power states
system.mem_ctrl.bytes_read::cpu.inst            72384                       # Number of bytes read from this memory
system.mem_ctrl.bytes_read::cpu.data           154368                       # Number of bytes read from this memory
system.mem_ctrl.bytes_read::total              226752                       # Number of bytes read from this memory
system.mem_ctrl.bytes_inst_read::cpu.inst        72384                       # Number of instructions bytes read from this memory
system.mem_ctrl.bytes_inst_read::total          72384                       # Number of instructions bytes read from this memory
system.mem_ctrl.num_reads::cpu.inst              1131                       # Number of read requests responded to by this memory
system.mem_ctrl.num_reads::cpu.data              2412                       # Number of read requests responded to by this memory
system.mem_ctrl.num_reads::total                 3543                       # Number of read requests responded to by this memory
system.mem_ctrl.bw_read::cpu.inst           120536585                       # Total read bandwidth from this memory (bytes/s)
system.mem_ctrl.bw_read::cpu.data           257059454                       # Total read bandwidth from this memory (bytes/s)
system.mem_ctrl.bw_read::total              377596039                       # Total read bandwidth from this memory (bytes/s)
system.mem_ctrl.bw_inst_read::cpu.inst      120536585                       # Instruction read bandwidth from this memory (bytes/s)
system.mem_ctrl.bw_inst_read::total         120536585                       # Instruction read bandwidth from this memory (bytes/s)
system.mem_ctrl.bw_total::cpu.inst          120536585                       # Total bandwidth to/from this memory (bytes/s)
system.mem_ctrl.bw_total::cpu.data          257059454                       # Total bandwidth to/from this memory (bytes/s)
system.mem_ctrl.bw_total::total             377596039                       # Total bandwidth to/from this memory (bytes/s)
system.mem_ctrl.readReqs                         3543                       # Number of read requests accepted
system.mem_ctrl.writeReqs                           0                       # Number of write requests accepted
system.mem_ctrl.readBursts                       3543                       # Number of DRAM read bursts, including those serviced by the write queue
system.mem_ctrl.writeBursts                         0                       # Number of DRAM write bursts, including those merged in the write queue
system.mem_ctrl.bytesReadDRAM                  226752                       # Total number of bytes read from DRAM
system.mem_ctrl.bytesReadWrQ                        0                       # Total number of bytes read from write queue
system.mem_ctrl.bytesWritten                        0                       # Total number of bytes written to DRAM
system.mem_ctrl.bytesReadSys                   226752                       # Total read bytes from the system interface side
system.mem_ctrl.bytesWrittenSys                     0                       # Total written bytes from the system interface side
system.mem_ctrl.servicedByWrQ                       0                       # Number of DRAM read bursts serviced by the write queue
system.mem_ctrl.mergedWrBursts                      0                       # Number of DRAM write bursts merged with an existing one
system.mem_ctrl.neitherReadNorWriteReqs             0                       # Number of requests that are neither read nor write
system.mem_ctrl.perBankRdBursts::0                243                       # Per bank write bursts
system.mem_ctrl.perBankRdBursts::1                238                       # Per bank write bursts
system.mem_ctrl.perBankRdBursts::2                210                       # Per bank write bursts
system.mem_ctrl.perBankRdBursts::3                156                       # Per bank write bursts
system.mem_ctrl.perBankRdBursts::4                267                       # Per bank write bursts
system.mem_ctrl.perBankRdBursts::5                273                       # Per bank write bursts
system.mem_ctrl.perBankRdBursts::6                262                       # Per bank write bursts
system.mem_ctrl.perBankRdBursts::7                242                       # Per bank write bursts
system.mem_ctrl.perBankRdBursts::8                221                       # Per bank write bursts
system.mem_ctrl.perBankRdBursts::9                303                       # Per bank write bursts
system.mem_ctrl.perBankRdBursts::10               367                       # Per bank write bursts
system.mem_ctrl.perBankRdBursts::11               252                       # Per bank write bursts
system.mem_ctrl.perBankRdBursts::12                38                       # Per bank write bursts
system.mem_ctrl.perBankRdBursts::13                76                       # Per bank write bursts
system.mem_ctrl.perBankRdBursts::14               137                       # Per bank write bursts
system.mem_ctrl.perBankRdBursts::15               258                       # Per bank write bursts
system.mem_ctrl.perBankWrBursts::0                  0                       # Per bank write bursts
system.mem_ctrl.perBankWrBursts::1                  0                       # Per bank write bursts
system.mem_ctrl.perBankWrBursts::2                  0                       # Per bank write bursts
system.mem_ctrl.perBankWrBursts::3                  0                       # Per bank write bursts
system.mem_ctrl.perBankWrBursts::4                  0                       # Per bank write bursts
system.mem_ctrl.perBankWrBursts::5                  0                       # Per bank write bursts
system.mem_ctrl.perBankWrBursts::6                  0                       # Per bank write bursts
system.mem_ctrl.perBankWrBursts::7                  0                       # Per bank write bursts
system.mem_ctrl.perBankWrBursts::8                  0                       # Per bank write bursts
system.mem_ctrl.perBankWrBursts::9                  0                       # Per bank write bursts
system.mem_ctrl.perBankWrBursts::10                 0                       # Per bank write bursts
system.mem_ctrl.perBankWrBursts::11                 0                       # Per bank write bursts
system.mem_ctrl.perBankWrBursts::12                 0                       # Per bank write bursts
system.mem_ctrl.perBankWrBursts::13                 0                       # Per bank write bursts
system.mem_ctrl.perBankWrBursts::14                 0                       # Per bank write bursts
system.mem_ctrl.perBankWrBursts::15                 0                       # Per bank write bursts
system.mem_ctrl.numRdRetry                          0                       # Number of times read queue was full causing retry
system.mem_ctrl.numWrRetry                          0                       # Number of times write queue was full causing retry
system.mem_ctrl.totGap                      600423395                       # Total gap between requests
system.mem_ctrl.readPktSize::0                      0                       # Read request sizes (log2)
system.mem_ctrl.readPktSize::1                      0                       # Read request sizes (log2)
system.mem_ctrl.readPktSize::2                      0                       # Read request sizes (log2)
system.mem_ctrl.readPktSize::3                      0                       # Read request sizes (log2)
system.mem_ctrl.readPktSize::4                      0                       # Read request sizes (log2)
system.mem_ctrl.readPktSize::5                      0                       # Read request sizes (log2)
system.mem_ctrl.readPktSize::6                   3543                       # Read request sizes (log2)
system.mem_ctrl.writePktSize::0                     0                       # Write request sizes (log2)
system.mem_ctrl.writePktSize::1                     0                       # Write request sizes (log2)
system.mem_ctrl.writePktSize::2                     0                       # Write request sizes (log2)
system.mem_ctrl.writePktSize::3                     0                       # Write request sizes (log2)
system.mem_ctrl.writePktSize::4                     0                       # Write request sizes (log2)
system.mem_ctrl.writePktSize::5                     0                       # Write request sizes (log2)
system.mem_ctrl.writePktSize::6                     0                       # Write request sizes (log2)
system.mem_ctrl.rdQLenPdf::0                     3296                       # What read queue length does an incoming req see
system.mem_ctrl.rdQLenPdf::1                      236                       # What read queue length does an incoming req see
system.mem_ctrl.rdQLenPdf::2                       11                       # What read queue length does an incoming req see
system.mem_ctrl.rdQLenPdf::3                        0                       # What read queue length does an incoming req see
system.mem_ctrl.rdQLenPdf::4                        0                       # What read queue length does an incoming req see
system.mem_ctrl.rdQLenPdf::5                        0                       # What read queue length does an incoming req see
system.mem_ctrl.rdQLenPdf::6                        0                       # What read queue length does an incoming req see
system.mem_ctrl.rdQLenPdf::7                        0                       # What read queue length does an incoming req see
system.mem_ctrl.rdQLenPdf::8                        0                       # What read queue length does an incoming req see
system.mem_ctrl.rdQLenPdf::9                        0                       # What read queue length does an incoming req see
system.mem_ctrl.rdQLenPdf::10                       0                       # What read queue length does an incoming req see
system.mem_ctrl.rdQLenPdf::11                       0                       # What read queue length does an incoming req see
system.mem_ctrl.rdQLenPdf::12                       0                       # What read queue length does an incoming req see
system.mem_ctrl.rdQLenPdf::13                       0                       # What read queue length does an incoming req see
system.mem_ctrl.rdQLenPdf::14                       0                       # What read queue length does an incoming req see
system.mem_ctrl.rdQLenPdf::15                       0                       # What read queue length does an incoming req see
system.mem_ctrl.rdQLenPdf::16                       0                       # What read queue length does an incoming req see
system.mem_ctrl.rdQLenPdf::17                       0                       # What read queue length does an incoming req see
system.mem_ctrl.rdQLenPdf::18                       0                       # What read queue length does an incoming req see
system.mem_ctrl.rdQLenPdf::19                       0                       # What read queue length does an incoming req see
system.mem_ctrl.rdQLenPdf::20                       0                       # What read queue length does an incoming req see
system.mem_ctrl.rdQLenPdf::21                       0                       # What read queue length does an incoming req see
system.mem_ctrl.rdQLenPdf::22                       0                       # What read queue length does an incoming req see
system.mem_ctrl.rdQLenPdf::23                       0                       # What read queue length does an incoming req see
system.mem_ctrl.rdQLenPdf::24                       0                       # What read queue length does an incoming req see
system.mem_ctrl.rdQLenPdf::25                       0                       # What read queue length does an incoming req see
system.mem_ctrl.rdQLenPdf::26                       0                       # What read queue length does an incoming req see
system.mem_ctrl.rdQLenPdf::27                       0                       # What read queue length does an incoming req see
system.mem_ctrl.rdQLenPdf::28                       0                       # What read queue length does an incoming req see
system.mem_ctrl.rdQLenPdf::29                       0                       # What read queue length does an incoming req see
system.mem_ctrl.rdQLenPdf::30                       0                       # What read queue length does an incoming req see
system.mem_ctrl.rdQLenPdf::31                       0                       # What read queue length does an incoming req see
system.mem_ctrl.wrQLenPdf::0                        0                       # What write queue length does an incoming req see
system.mem_ctrl.wrQLenPdf::1                        0                       # What write queue length does an incoming req see
system.mem_ctrl.wrQLenPdf::2                        0                       # What write queue length does an incoming req see
system.mem_ctrl.wrQLenPdf::3                        0                       # What write queue length does an incoming req see
system.mem_ctrl.wrQLenPdf::4                        0                       # What write queue length does an incoming req see
system.mem_ctrl.wrQLenPdf::5                        0                       # What write queue length does an incoming req see
system.mem_ctrl.wrQLenPdf::6                        0                       # What write queue length does an incoming req see
system.mem_ctrl.wrQLenPdf::7                        0                       # What write queue length does an incoming req see
system.mem_ctrl.wrQLenPdf::8                        0                       # What write queue length does an incoming req see
system.mem_ctrl.wrQLenPdf::9                        0                       # What write queue length does an incoming req see
system.mem_ctrl.wrQLenPdf::10                       0                       # What write queue length does an incoming req see
system.mem_ctrl.wrQLenPdf::11                       0                       # What write queue length does an incoming req see
system.mem_ctrl.wrQLenPdf::12                       0                       # What write queue length does an incoming req see
system.mem_ctrl.wrQLenPdf::13                       0                       # What write queue length does an incoming req see
system.mem_ctrl.wrQLenPdf::14                       0                       # What write queue length does an incoming req see
system.mem_ctrl.wrQLenPdf::15                       0                       # What write queue length does an incoming req see
system.mem_ctrl.wrQLenPdf::16                       0                       # What write queue length does an incoming req see
system.mem_ctrl.wrQLenPdf::17                       0                       # What write queue length does an incoming req see
system.mem_ctrl.wrQLenPdf::18                       0                       # What write queue length does an incoming req see
system.mem_ctrl.wrQLenPdf::19                       0                       # What write queue length does an incoming req see
system.mem_ctrl.wrQLenPdf::20                       0                       # What write queue length does an incoming req see
system.mem_ctrl.wrQLenPdf::21                       0                       # What write queue length does an incoming req see
system.mem_ctrl.wrQLenPdf::22                       0                       # What write queue length does an incoming req see
system.mem_ctrl.wrQLenPdf::23                       0                       # What write queue length does an incoming req see
system.mem_ctrl.wrQLenPdf::24                       0                       # What write queue length does an incoming req see
system.mem_ctrl.wrQLenPdf::25                       0                       # What write queue length does an incoming req see
system.mem_ctrl.wrQLenPdf::26                       0                       # What write queue length does an incoming req see
system.mem_ctrl.wrQLenPdf::27                       0                       # What write queue length does an incoming req see
system.mem_ctrl.wrQLenPdf::28                       0                       # What write queue length does an incoming req see
system.mem_ctrl.wrQLenPdf::29                       0                       # What write queue length does an incoming req see
system.mem_ctrl.wrQLenPdf::30                       0                       # What write queue length does an incoming req see
system.mem_ctrl.wrQLenPdf::31                       0                       # What write queue length does an incoming req see
system.mem_ctrl.wrQLenPdf::32                       0                       # What write queue length does an incoming req see
system.mem_ctrl.wrQLenPdf::33                       0                       # What write queue length does an incoming req see
system.mem_ctrl.wrQLenPdf::34                       0                       # What write queue length does an incoming req see
system.mem_ctrl.wrQLenPdf::35                       0                       # What write queue length does an incoming req see
system.mem_ctrl.wrQLenPdf::36                       0                       # What write queue length does an incoming req see
system.mem_ctrl.wrQLenPdf::37                       0                       # What write queue length does an incoming req see
system.mem_ctrl.wrQLenPdf::38                       0                       # What write queue length does an incoming req see
system.mem_ctrl.wrQLenPdf::39                       0                       # What write queue length does an incoming req see
system.mem_ctrl.wrQLenPdf::40                       0                       # What write queue length does an incoming req see
system.mem_ctrl.wrQLenPdf::41                       0                       # What write queue length does an incoming req see
system.mem_ctrl.wrQLenPdf::42                       0                       # What write queue length does an incoming req see
system.mem_ctrl.wrQLenPdf::43                       0                       # What write queue length does an incoming req see
system.mem_ctrl.wrQLenPdf::44                       0                       # What write queue length does an incoming req see
system.mem_ctrl.wrQLenPdf::45                       0                       # What write queue length does an incoming req see
system.mem_ctrl.wrQLenPdf::46                       0                       # What write queue length does an incoming req see
system.mem_ctrl.wrQLenPdf::47                       0                       # What write queue length does an incoming req see
system.mem_ctrl.wrQLenPdf::48                       0                       # What write queue length does an incoming req see
system.mem_ctrl.wrQLenPdf::49                       0                       # What write queue length does an incoming req see
system.mem_ctrl.wrQLenPdf::50                       0                       # What write queue length does an incoming req see
system.mem_ctrl.wrQLenPdf::51                       0                       # What write queue length does an incoming req see
system.mem_ctrl.wrQLenPdf::52                       0                       # What write queue length does an incoming req see
system.mem_ctrl.wrQLenPdf::53                       0                       # What write queue length does an incoming req see
system.mem_ctrl.wrQLenPdf::54                       0                       # What write queue length does an incoming req see
system.mem_ctrl.wrQLenPdf::55                       0                       # What write queue length does an incoming req see
system.mem_ctrl.wrQLenPdf::56                       0                       # What write queue length does an incoming req see
system.mem_ctrl.wrQLenPdf::57                       0                       # What write queue length does an incoming req see
system.mem_ctrl.wrQLenPdf::58                       0                       # What write queue length does an incoming req see
system.mem_ctrl.wrQLenPdf::59                       0                       # What write queue length does an incoming req see
system.mem_ctrl.wrQLenPdf::60                       0                       # What write queue length does an incoming req see
system.mem_ctrl.wrQLenPdf::61                       0                       # What write queue length does an incoming req see
system.mem_ctrl.wrQLenPdf::62                       0                       # What write queue length does an incoming req see
system.mem_ctrl.wrQLenPdf::63                       0                       # What write queue length does an incoming req see
system.mem_ctrl.bytesPerActivate::samples          612                       # Bytes accessed per row activation
system.mem_ctrl.bytesPerActivate::mean     368.313725                       # Bytes accessed per row activation
system.mem_ctrl.bytesPerActivate::gmean    225.808355                       # Bytes accessed per row activation
system.mem_ctrl.bytesPerActivate::stdev    349.980078                       # Bytes accessed per row activation
system.mem_ctrl.bytesPerActivate::0-127           170     27.78%     27.78% # Bytes accessed per row activation
system.mem_ctrl.bytesPerActivate::128-255          143     23.37%     51.14% # Bytes accessed per row activation
system.mem_ctrl.bytesPerActivate::256-383           84     13.73%     64.87% # Bytes accessed per row activation
system.mem_ctrl.bytesPerActivate::384-511           47      7.68%     72.55% # Bytes accessed per row activation
system.mem_ctrl.bytesPerActivate::512-639           26      4.25%     76.80% # Bytes accessed per row activation
system.mem_ctrl.bytesPerActivate::640-767           19      3.10%     79.90% # Bytes accessed per row activation
system.mem_ctrl.bytesPerActivate::768-895           14      2.29%     82.19% # Bytes accessed per row activation
system.mem_ctrl.bytesPerActivate::896-1023            4      0.65%     82.84% # Bytes accessed per row activation
system.mem_ctrl.bytesPerActivate::1024-1151          105     17.16%    100.00% # Bytes accessed per row activation
system.mem_ctrl.bytesPerActivate::total           612                       # Bytes accessed per row activation
system.mem_ctrl.totQLat                      47152054                       # Total ticks spent queuing
system.mem_ctrl.totMemAccLat                113583304                       # Total ticks spent from burst creation until serviced by the DRAM
system.mem_ctrl.totBusLat                    17715000                       # Total ticks spent in databus transfers
system.mem_ctrl.avgQLat                      13308.51                       # Average queueing delay per DRAM burst
system.mem_ctrl.avgBusLat                     5000.00                       # Average bus latency per DRAM burst
system.mem_ctrl.avgMemAccLat                 32058.51                       # Average memory access latency per DRAM burst
system.mem_ctrl.avgRdBW                        377.60                       # Average DRAM read bandwidth in MiByte/s
system.mem_ctrl.avgWrBW                          0.00                       # Average achieved write bandwidth in MiByte/s
system.mem_ctrl.avgRdBWSys                     377.60                       # Average system read bandwidth in MiByte/s
system.mem_ctrl.avgWrBWSys                       0.00                       # Average system write bandwidth in MiByte/s
system.mem_ctrl.peakBW                       12800.00                       # Theoretical peak bandwidth in MiByte/s
system.mem_ctrl.busUtil                          2.95                       # Data bus utilization in percentage
system.mem_ctrl.busUtilRead                      2.95                       # Data bus utilization in percentage for reads
system.mem_ctrl.busUtilWrite                     0.00                       # Data bus utilization in percentage for writes
system.mem_ctrl.avgRdQLen                        1.04                       # Average read queue length when enqueuing
system.mem_ctrl.avgWrQLen                        0.00                       # Average write queue length when enqueuing
system.mem_ctrl.readRowHits                      2927                       # Number of row buffer hits during reads
system.mem_ctrl.writeRowHits                        0                       # Number of row buffer hits during writes
system.mem_ctrl.readRowHitRate                  82.61                       # Row buffer hit rate for reads
system.mem_ctrl.writeRowHitRate                   nan                       # Row buffer hit rate for writes
system.mem_ctrl.avgGap                      169467.51                       # Average gap between requests
system.mem_ctrl.pageHitRate                     82.61                       # Row buffer hit rate, read and write combined
system.mem_ctrl_0.actEnergy                   2491860                       # Energy for activate commands per rank (pJ)
system.mem_ctrl_0.preEnergy                   1316865                       # Energy for precharge commands per rank (pJ)
system.mem_ctrl_0.readEnergy                 13501740                       # Energy for read commands per rank (pJ)
system.mem_ctrl_0.writeEnergy                       0                       # Energy for write commands per rank (pJ)
system.mem_ctrl_0.refreshEnergy          44254080.000000                       # Energy for refresh commands per rank (pJ)
system.mem_ctrl_0.actBackEnergy              32881590                       # Energy for active background per rank (pJ)
system.mem_ctrl_0.preBackEnergy               1214880                       # Energy for precharge background per rank (pJ)
system.mem_ctrl_0.actPowerDownEnergy        191530260                       # Energy for active power-down per rank (pJ)
system.mem_ctrl_0.prePowerDownEnergy         20550720                       # Energy for precharge power-down per rank (pJ)
system.mem_ctrl_0.selfRefreshEnergy          13513080                       # Energy for self refresh per rank (pJ)
system.mem_ctrl_0.totalEnergy               321255075                       # Total energy per rank (pJ)
system.mem_ctrl_0.averagePower             534.965946                       # Core power per rank (mW)
system.mem_ctrl_0.totalIdleTime             524977290                       # Total Idle time Per DRAM Rank
system.mem_ctrl_0.memoryStateTime::IDLE        982008                       # Time in different power states
system.mem_ctrl_0.memoryStateTime::REF       18738000                       # Time in different power states
system.mem_ctrl_0.memoryStateTime::SREF      51702865                       # Time in different power states
system.mem_ctrl_0.memoryStateTime::PRE_PDN     53507288                       # Time in different power states
system.mem_ctrl_0.memoryStateTime::ACT       55516063                       # Time in different power states
system.mem_ctrl_0.memoryStateTime::ACT_PDN    420068550                       # Time in different power states
system.mem_ctrl_1.actEnergy                   1906380                       # Energy for activate commands per rank (pJ)
system.mem_ctrl_1.preEnergy                   1005675                       # Energy for precharge commands per rank (pJ)
system.mem_ctrl_1.readEnergy                 11795280                       # Energy for read commands per rank (pJ)
system.mem_ctrl_1.writeEnergy                       0                       # Energy for write commands per rank (pJ)
system.mem_ctrl_1.refreshEnergy          39951600.000000                       # Energy for refresh commands per rank (pJ)
system.mem_ctrl_1.actBackEnergy              27761850                       # Energy for active background per rank (pJ)
system.mem_ctrl_1.preBackEnergy               2987520                       # Energy for precharge background per rank (pJ)
system.mem_ctrl_1.actPowerDownEnergy        174517470                       # Energy for active power-down per rank (pJ)
system.mem_ctrl_1.prePowerDownEnergy         16108800                       # Energy for precharge power-down per rank (pJ)
system.mem_ctrl_1.selfRefreshEnergy          26830080                       # Energy for self refresh per rank (pJ)
system.mem_ctrl_1.totalEnergy               302864655                       # Total energy per rank (pJ)
system.mem_ctrl_1.averagePower             504.341532                       # Core power per rank (mW)
system.mem_ctrl_1.totalIdleTime             531825063                       # Total Idle time Per DRAM Rank
system.mem_ctrl_1.memoryStateTime::IDLE       5582265                       # Time in different power states
system.mem_ctrl_1.memoryStateTime::REF       16942000                       # Time in different power states
system.mem_ctrl_1.memoryStateTime::SREF     107189773                       # Time in different power states
system.mem_ctrl_1.memoryStateTime::PRE_PDN     41933848                       # Time in different power states
system.mem_ctrl_1.memoryStateTime::ACT       46114825                       # Time in different power states
system.mem_ctrl_1.memoryStateTime::ACT_PDN    382752063                       # Time in different power states
system.pwrStateResidencyTicks::UNDEFINED    600514774                       # Cumulative time (in ticks) in various power states
system.cpu.branchPred.lookups                      79                       # Number of BP lookups
system.cpu.branchPred.condPredicted                79                       # Number of conditional branches predicted
system.cpu.branchPred.condIncorrect                31                       # Number of conditional branches incorrect
system.cpu.branchPred.BTBLookups                   34                       # Number of BTB lookups
system.cpu.branchPred.BTBHits                       0                       # Number of BTB hits
system.cpu.branchPred.BTBCorrect                    0                       # Number of correct BTB predictions (this stat may not work properly.
system.cpu.branchPred.BTBHitPct              0.000000                       # BTB Hit Percentage
system.cpu.branchPred.usedRAS                       0                       # Number of times the RAS was used to get a target.
system.cpu.branchPred.RASInCorrect                  0                       # Number of incorrect RAS predictions.
system.cpu.branchPred.indirectLookups              34                       # Number of indirect predictor lookups.
system.cpu.branchPred.indirectHits                  0                       # Number of indirect target hits.
system.cpu.branchPred.indirectMisses               34                       # Number of indirect misses.
system.cpu.branchPredindirectMispredicted           11                       # Number of mispredicted indirect branches.
system.cpu.dtb.walker.pwrStateResidencyTicks::UNDEFINED    600514774                       # Cumulative time (in ticks) in various power states
system.cpu.dtb.rdAccesses                       67472                       # TLB accesses on read requests
system.cpu.dtb.wrAccesses                       17120                       # TLB accesses on write requests
system.cpu.dtb.rdMisses                          1693                       # TLB misses on read requests
system.cpu.dtb.wrMisses                            23                       # TLB misses on write requests
system.cpu.apic_clk_domain.clock                10672                       # Clock period in ticks
system.cpu.interrupts.pwrStateResidencyTicks::UNDEFINED    600514774                       # Cumulative time (in ticks) in various power states
system.cpu.itb.walker.pwrStateResidencyTicks::UNDEFINED    600514774                       # Cumulative time (in ticks) in various power states
system.cpu.itb.rdAccesses                           0                       # TLB accesses on read requests
system.cpu.itb.wrAccesses                       69748                       # TLB accesses on write requests
system.cpu.itb.rdMisses                             0                       # TLB misses on read requests
system.cpu.itb.wrMisses                            89                       # TLB misses on write requests
system.cpu.workload.numSyscalls                    32                       # Number of system calls
system.cpu.pwrStateResidencyTicks::ON       600514774                       # Cumulative time (in ticks) in various power states
system.cpu.numCycles                           900322                       # number of cpu cycles simulated
system.cpu.numWorkItemsStarted                      0                       # number of work items this cpu started
system.cpu.numWorkItemsCompleted                    0                       # number of work items this cpu completed
system.cpu.committedInsts                      180286                       # Number of instructions committed
system.cpu.committedOps                        330274                       # Number of ops (including micro ops) committed
system.cpu.discardedOps                         73818                       # Number of ops (including micro ops) which were discarded before commit
system.cpu.numFetchSuspends                         0                       # Number of times Execute suspended instruction fetching
system.cpu.cpi                               4.993854                       # CPI: cycles per instruction
system.cpu.ipc                               0.200246                       # IPC: instructions per cycle
system.cpu.op_class_0::No_OpClass                1287      0.39%      0.39% # Class of committed instruction
system.cpu.op_class_0::IntAlu                  253310     76.70%     77.09% # Class of committed instruction
system.cpu.op_class_0::IntMult                     61      0.02%     77.11% # Class of committed instruction
system.cpu.op_class_0::IntDiv                    1131      0.34%     77.45% # Class of committed instruction
system.cpu.op_class_0::FloatAdd                  2227      0.67%     78.12% # Class of committed instruction
system.cpu.op_class_0::FloatCmp                     0      0.00%     78.12% # Class of committed instruction
system.cpu.op_class_0::FloatCvt                     0      0.00%     78.12% # Class of committed instruction
system.cpu.op_class_0::FloatMult                    0      0.00%     78.12% # Class of committed instruction
system.cpu.op_class_0::FloatMultAcc                 0      0.00%     78.12% # Class of committed instruction
system.cpu.op_class_0::FloatDiv                     0      0.00%     78.12% # Class of committed instruction
system.cpu.op_class_0::FloatMisc                    0      0.00%     78.12% # Class of committed instruction
system.cpu.op_class_0::FloatSqrt                    0      0.00%     78.12% # Class of committed instruction
system.cpu.op_class_0::SimdAdd                      0      0.00%     78.12% # Class of committed instruction
system.cpu.op_class_0::SimdAddAcc                   0      0.00%     78.12% # Class of committed instruction
system.cpu.op_class_0::SimdAlu                      0      0.00%     78.12% # Class of committed instruction
system.cpu.op_class_0::SimdCmp                      0      0.00%     78.12% # Class of committed instruction
system.cpu.op_class_0::SimdCvt                      0      0.00%     78.12% # Class of committed instruction
system.cpu.op_class_0::SimdMisc                     0      0.00%     78.12% # Class of committed instruction
system.cpu.op_class_0::SimdMult                     0      0.00%     78.12% # Class of committed instruction
system.cpu.op_class_0::SimdMultAcc                  0      0.00%     78.12% # Class of committed instruction
system.cpu.op_class_0::SimdShift                    0      0.00%     78.12% # Class of committed instruction
system.cpu.op_class_0::SimdShiftAcc                 0      0.00%     78.12% # Class of committed instruction
system.cpu.op_class_0::SimdSqrt                     0      0.00%     78.12% # Class of committed instruction
system.cpu.op_class_0::SimdFloatAdd                 0      0.00%     78.12% # Class of committed instruction
system.cpu.op_class_0::SimdFloatAlu                 0      0.00%     78.12% # Class of committed instruction
system.cpu.op_class_0::SimdFloatCmp                 0      0.00%     78.12% # Class of committed instruction
system.cpu.op_class_0::SimdFloatCvt                 0      0.00%     78.12% # Class of committed instruction
system.cpu.op_class_0::SimdFloatDiv                 0      0.00%     78.12% # Class of committed instruction
system.cpu.op_class_0::SimdFloatMisc                0      0.00%     78.12% # Class of committed instruction
system.cpu.op_class_0::SimdFloatMult                0      0.00%     78.12% # Class of committed instruction
system.cpu.op_class_0::SimdFloatMultAcc             0      0.00%     78.12% # Class of committed instruction
system.cpu.op_class_0::SimdFloatSqrt                0      0.00%     78.12% # Class of committed instruction
system.cpu.op_class_0::MemRead                  54608     16.53%     94.66% # Class of committed instruction
system.cpu.op_class_0::MemWrite                 16484      4.99%     99.65% # Class of committed instruction
system.cpu.op_class_0::FloatMemRead               782      0.24%     99.88% # Class of committed instruction
system.cpu.op_class_0::FloatMemWrite              384      0.12%    100.00% # Class of committed instruction
system.cpu.op_class_0::IprAccess                    0      0.00%    100.00% # Class of committed instruction
system.cpu.op_class_0::InstPrefetch                 0      0.00%    100.00% # Class of committed instruction
system.cpu.op_class_0::total                   330274                       # Class of committed instruction
system.cpu.tickCycles                          491423                       # Number of cycles that the object actually ticked
system.cpu.idleCycles                          408899                       # Total number of cycles that the object has spent stopped
system.cpu.dcache.tags.pwrStateResidencyTicks::UNDEFINED    600514774                       # Cumulative time (in ticks) in various power states
system.cpu.dcache.tags.replacements              1728                       # number of replacements
system.cpu.dcache.tags.tagsinuse           765.794561                       # Cycle average of tags in use
system.cpu.dcache.tags.total_refs               79327                       # Total number of references to valid blocks.
system.cpu.dcache.tags.sampled_refs              2752                       # Sample count of references to valid blocks.
system.cpu.dcache.tags.avg_refs             28.825218                       # Average number of references to valid blocks.
system.cpu.dcache.tags.warmup_cycle         479812453                       # Cycle when the warmup percentage was hit.
system.cpu.dcache.tags.occ_blocks::cpu.data   765.794561                       # Average occupied blocks per requestor
system.cpu.dcache.tags.occ_percent::cpu.data     0.747846                       # Average percentage of cache occupancy
system.cpu.dcache.tags.occ_percent::total     0.747846                       # Average percentage of cache occupancy
system.cpu.dcache.tags.occ_task_id_blocks::1024         1024                       # Occupied blocks per task id
system.cpu.dcache.tags.age_task_id_blocks_1024::0           33                       # Occupied blocks per task id
system.cpu.dcache.tags.age_task_id_blocks_1024::1          124                       # Occupied blocks per task id
system.cpu.dcache.tags.age_task_id_blocks_1024::2          867                       # Occupied blocks per task id
system.cpu.dcache.tags.occ_task_id_percent::1024            1                       # Percentage of cache occupancy per task id
system.cpu.dcache.tags.tag_accesses             85234                       # Number of tag accesses
system.cpu.dcache.tags.data_accesses            85234                       # Number of data accesses
system.cpu.dcache.pwrStateResidencyTicks::UNDEFINED    600514774                       # Cumulative time (in ticks) in various power states
system.cpu.dcache.ReadReq_hits::cpu.data        63433                       # number of ReadReq hits
system.cpu.dcache.ReadReq_hits::total           63433                       # number of ReadReq hits
system.cpu.dcache.WriteReq_hits::cpu.data        15894                       # number of WriteReq hits
system.cpu.dcache.WriteReq_hits::total          15894                       # number of WriteReq hits
system.cpu.dcache.demand_hits::cpu.data         79327                       # number of demand (read+write) hits
system.cpu.dcache.demand_hits::total            79327                       # number of demand (read+write) hits
system.cpu.dcache.overall_hits::cpu.data        79327                       # number of overall hits
system.cpu.dcache.overall_hits::total           79327                       # number of overall hits
system.cpu.dcache.ReadReq_misses::cpu.data         2181                       # number of ReadReq misses
system.cpu.dcache.ReadReq_misses::total          2181                       # number of ReadReq misses
system.cpu.dcache.WriteReq_misses::cpu.data          974                       # number of WriteReq misses
system.cpu.dcache.WriteReq_misses::total          974                       # number of WriteReq misses
system.cpu.dcache.demand_misses::cpu.data         3155                       # number of demand (read+write) misses
system.cpu.dcache.demand_misses::total           3155                       # number of demand (read+write) misses
system.cpu.dcache.overall_misses::cpu.data         3155                       # number of overall misses
system.cpu.dcache.overall_misses::total          3155                       # number of overall misses
system.cpu.dcache.ReadReq_miss_latency::cpu.data    178291101                       # number of ReadReq miss cycles
system.cpu.dcache.ReadReq_miss_latency::total    178291101                       # number of ReadReq miss cycles
system.cpu.dcache.WriteReq_miss_latency::cpu.data     74830730                       # number of WriteReq miss cycles
system.cpu.dcache.WriteReq_miss_latency::total     74830730                       # number of WriteReq miss cycles
system.cpu.dcache.demand_miss_latency::cpu.data    253121831                       # number of demand (read+write) miss cycles
system.cpu.dcache.demand_miss_latency::total    253121831                       # number of demand (read+write) miss cycles
system.cpu.dcache.overall_miss_latency::cpu.data    253121831                       # number of overall miss cycles
system.cpu.dcache.overall_miss_latency::total    253121831                       # number of overall miss cycles
system.cpu.dcache.ReadReq_accesses::cpu.data        65614                       # number of ReadReq accesses(hits+misses)
system.cpu.dcache.ReadReq_accesses::total        65614                       # number of ReadReq accesses(hits+misses)
system.cpu.dcache.WriteReq_accesses::cpu.data        16868                       # number of WriteReq accesses(hits+misses)
system.cpu.dcache.WriteReq_accesses::total        16868                       # number of WriteReq accesses(hits+misses)
system.cpu.dcache.demand_accesses::cpu.data        82482                       # number of demand (read+write) accesses
system.cpu.dcache.demand_accesses::total        82482                       # number of demand (read+write) accesses
system.cpu.dcache.overall_accesses::cpu.data        82482                       # number of overall (read+write) accesses
system.cpu.dcache.overall_accesses::total        82482                       # number of overall (read+write) accesses
system.cpu.dcache.ReadReq_miss_rate::cpu.data     0.033240                       # miss rate for ReadReq accesses
system.cpu.dcache.ReadReq_miss_rate::total     0.033240                       # miss rate for ReadReq accesses
system.cpu.dcache.WriteReq_miss_rate::cpu.data     0.057742                       # miss rate for WriteReq accesses
system.cpu.dcache.WriteReq_miss_rate::total     0.057742                       # miss rate for WriteReq accesses
system.cpu.dcache.demand_miss_rate::cpu.data     0.038251                       # miss rate for demand accesses
system.cpu.dcache.demand_miss_rate::total     0.038251                       # miss rate for demand accesses
system.cpu.dcache.overall_miss_rate::cpu.data     0.038251                       # miss rate for overall accesses
system.cpu.dcache.overall_miss_rate::total     0.038251                       # miss rate for overall accesses
system.cpu.dcache.ReadReq_avg_miss_latency::cpu.data 81747.409904                       # average ReadReq miss latency
system.cpu.dcache.ReadReq_avg_miss_latency::total 81747.409904                       # average ReadReq miss latency
system.cpu.dcache.WriteReq_avg_miss_latency::cpu.data 76828.264887                       # average WriteReq miss latency
system.cpu.dcache.WriteReq_avg_miss_latency::total 76828.264887                       # average WriteReq miss latency
system.cpu.dcache.demand_avg_miss_latency::cpu.data 80228.789540                       # average overall miss latency
system.cpu.dcache.demand_avg_miss_latency::total 80228.789540                       # average overall miss latency
system.cpu.dcache.overall_avg_miss_latency::cpu.data 80228.789540                       # average overall miss latency
system.cpu.dcache.overall_avg_miss_latency::total 80228.789540                       # average overall miss latency
system.cpu.dcache.blocked_cycles::no_mshrs            0                       # number of cycles access was blocked
system.cpu.dcache.blocked_cycles::no_targets            0                       # number of cycles access was blocked
system.cpu.dcache.blocked::no_mshrs                 0                       # number of cycles access was blocked
system.cpu.dcache.blocked::no_targets               0                       # number of cycles access was blocked
system.cpu.dcache.avg_blocked_cycles::no_mshrs          nan                       # average number of cycles each access was blocked
system.cpu.dcache.avg_blocked_cycles::no_targets          nan                       # average number of cycles each access was blocked
system.cpu.dcache.writebacks::writebacks          599                       # number of writebacks
system.cpu.dcache.writebacks::total               599                       # number of writebacks
system.cpu.dcache.ReadReq_mshr_hits::cpu.data           24                       # number of ReadReq MSHR hits
system.cpu.dcache.ReadReq_mshr_hits::total           24                       # number of ReadReq MSHR hits
system.cpu.dcache.WriteReq_mshr_hits::cpu.data          379                       # number of WriteReq MSHR hits
system.cpu.dcache.WriteReq_mshr_hits::total          379                       # number of WriteReq MSHR hits
system.cpu.dcache.demand_mshr_hits::cpu.data          403                       # number of demand (read+write) MSHR hits
system.cpu.dcache.demand_mshr_hits::total          403                       # number of demand (read+write) MSHR hits
system.cpu.dcache.overall_mshr_hits::cpu.data          403                       # number of overall MSHR hits
system.cpu.dcache.overall_mshr_hits::total          403                       # number of overall MSHR hits
system.cpu.dcache.ReadReq_mshr_misses::cpu.data         2157                       # number of ReadReq MSHR misses
system.cpu.dcache.ReadReq_mshr_misses::total         2157                       # number of ReadReq MSHR misses
system.cpu.dcache.WriteReq_mshr_misses::cpu.data          595                       # number of WriteReq MSHR misses
system.cpu.dcache.WriteReq_mshr_misses::total          595                       # number of WriteReq MSHR misses
system.cpu.dcache.demand_mshr_misses::cpu.data         2752                       # number of demand (read+write) MSHR misses
system.cpu.dcache.demand_mshr_misses::total         2752                       # number of demand (read+write) MSHR misses
system.cpu.dcache.overall_mshr_misses::cpu.data         2752                       # number of overall MSHR misses
system.cpu.dcache.overall_mshr_misses::total         2752                       # number of overall MSHR misses
system.cpu.dcache.ReadReq_mshr_miss_latency::cpu.data    173369308                       # number of ReadReq MSHR miss cycles
system.cpu.dcache.ReadReq_mshr_miss_latency::total    173369308                       # number of ReadReq MSHR miss cycles
system.cpu.dcache.WriteReq_mshr_miss_latency::cpu.data     46993485                       # number of WriteReq MSHR miss cycles
system.cpu.dcache.WriteReq_mshr_miss_latency::total     46993485                       # number of WriteReq MSHR miss cycles
system.cpu.dcache.demand_mshr_miss_latency::cpu.data    220362793                       # number of demand (read+write) MSHR miss cycles
system.cpu.dcache.demand_mshr_miss_latency::total    220362793                       # number of demand (read+write) MSHR miss cycles
system.cpu.dcache.overall_mshr_miss_latency::cpu.data    220362793                       # number of overall MSHR miss cycles
system.cpu.dcache.overall_mshr_miss_latency::total    220362793                       # number of overall MSHR miss cycles
system.cpu.dcache.ReadReq_mshr_miss_rate::cpu.data     0.032874                       # mshr miss rate for ReadReq accesses
system.cpu.dcache.ReadReq_mshr_miss_rate::total     0.032874                       # mshr miss rate for ReadReq accesses
system.cpu.dcache.WriteReq_mshr_miss_rate::cpu.data     0.035274                       # mshr miss rate for WriteReq accesses
system.cpu.dcache.WriteReq_mshr_miss_rate::total     0.035274                       # mshr miss rate for WriteReq accesses
system.cpu.dcache.demand_mshr_miss_rate::cpu.data     0.033365                       # mshr miss rate for demand accesses
system.cpu.dcache.demand_mshr_miss_rate::total     0.033365                       # mshr miss rate for demand accesses
system.cpu.dcache.overall_mshr_miss_rate::cpu.data     0.033365                       # mshr miss rate for overall accesses
system.cpu.dcache.overall_mshr_miss_rate::total     0.033365                       # mshr miss rate for overall accesses
system.cpu.dcache.ReadReq_avg_mshr_miss_latency::cpu.data 80375.200742                       # average ReadReq mshr miss latency
system.cpu.dcache.ReadReq_avg_mshr_miss_latency::total 80375.200742                       # average ReadReq mshr miss latency
system.cpu.dcache.WriteReq_avg_mshr_miss_latency::cpu.data 78980.647059                       # average WriteReq mshr miss latency
system.cpu.dcache.WriteReq_avg_mshr_miss_latency::total 78980.647059                       # average WriteReq mshr miss latency
system.cpu.dcache.demand_avg_mshr_miss_latency::cpu.data 80073.689317                       # average overall mshr miss latency
system.cpu.dcache.demand_avg_mshr_miss_latency::total 80073.689317                       # average overall mshr miss latency
system.cpu.dcache.overall_avg_mshr_miss_latency::cpu.data 80073.689317                       # average overall mshr miss latency
system.cpu.dcache.overall_avg_mshr_miss_latency::total 80073.689317                       # average overall mshr miss latency
system.cpu.icache.tags.pwrStateResidencyTicks::UNDEFINED    600514774                       # Cumulative time (in ticks) in various power states
system.cpu.icache.tags.replacements               885                       # number of replacements
system.cpu.icache.tags.tagsinuse           410.921588                       # Cycle average of tags in use
system.cpu.icache.tags.total_refs               68379                       # Total number of references to valid blocks.
system.cpu.icache.tags.sampled_refs              1368                       # Sample count of references to valid blocks.
system.cpu.icache.tags.avg_refs             49.984649                       # Average number of references to valid blocks.
system.cpu.icache.tags.warmup_cycle                 0                       # Cycle when the warmup percentage was hit.
system.cpu.icache.tags.occ_blocks::cpu.inst   410.921588                       # Average occupied blocks per requestor
system.cpu.icache.tags.occ_percent::cpu.inst     0.802581                       # Average percentage of cache occupancy
system.cpu.icache.tags.occ_percent::total     0.802581                       # Average percentage of cache occupancy
system.cpu.icache.tags.occ_task_id_blocks::1024          483                       # Occupied blocks per task id
system.cpu.icache.tags.age_task_id_blocks_1024::0           96                       # Occupied blocks per task id
system.cpu.icache.tags.age_task_id_blocks_1024::1          112                       # Occupied blocks per task id
system.cpu.icache.tags.age_task_id_blocks_1024::2          275                       # Occupied blocks per task id
system.cpu.icache.tags.occ_task_id_percent::1024     0.943359                       # Percentage of cache occupancy per task id
system.cpu.icache.tags.tag_accesses             71116                       # Number of tag accesses
system.cpu.icache.tags.data_accesses            71116                       # Number of data accesses
system.cpu.icache.pwrStateResidencyTicks::UNDEFINED    600514774                       # Cumulative time (in ticks) in various power states
system.cpu.icache.ReadReq_hits::cpu.inst        68379                       # number of ReadReq hits
system.cpu.icache.ReadReq_hits::total           68379                       # number of ReadReq hits
system.cpu.icache.demand_hits::cpu.inst         68379                       # number of demand (read+write) hits
system.cpu.icache.demand_hits::total            68379                       # number of demand (read+write) hits
system.cpu.icache.overall_hits::cpu.inst        68379                       # number of overall hits
system.cpu.icache.overall_hits::total           68379                       # number of overall hits
system.cpu.icache.ReadReq_misses::cpu.inst         1369                       # number of ReadReq misses
system.cpu.icache.ReadReq_misses::total          1369                       # number of ReadReq misses
system.cpu.icache.demand_misses::cpu.inst         1369                       # number of demand (read+write) misses
system.cpu.icache.demand_misses::total           1369                       # number of demand (read+write) misses
system.cpu.icache.overall_misses::cpu.inst         1369                       # number of overall misses
system.cpu.icache.overall_misses::total          1369                       # number of overall misses
system.cpu.icache.ReadReq_miss_latency::cpu.inst    104679647                       # number of ReadReq miss cycles
system.cpu.icache.ReadReq_miss_latency::total    104679647                       # number of ReadReq miss cycles
system.cpu.icache.demand_miss_latency::cpu.inst    104679647                       # number of demand (read+write) miss cycles
system.cpu.icache.demand_miss_latency::total    104679647                       # number of demand (read+write) miss cycles
system.cpu.icache.overall_miss_latency::cpu.inst    104679647                       # number of overall miss cycles
system.cpu.icache.overall_miss_latency::total    104679647                       # number of overall miss cycles
system.cpu.icache.ReadReq_accesses::cpu.inst        69748                       # number of ReadReq accesses(hits+misses)
system.cpu.icache.ReadReq_accesses::total        69748                       # number of ReadReq accesses(hits+misses)
system.cpu.icache.demand_accesses::cpu.inst        69748                       # number of demand (read+write) accesses
system.cpu.icache.demand_accesses::total        69748                       # number of demand (read+write) accesses
system.cpu.icache.overall_accesses::cpu.inst        69748                       # number of overall (read+write) accesses
system.cpu.icache.overall_accesses::total        69748                       # number of overall (read+write) accesses
system.cpu.icache.ReadReq_miss_rate::cpu.inst     0.019628                       # miss rate for ReadReq accesses
system.cpu.icache.ReadReq_miss_rate::total     0.019628                       # miss rate for ReadReq accesses
system.cpu.icache.demand_miss_rate::cpu.inst     0.019628                       # miss rate for demand accesses
system.cpu.icache.demand_miss_rate::total     0.019628                       # miss rate for demand accesses
system.cpu.icache.overall_miss_rate::cpu.inst     0.019628                       # miss rate for overall accesses
system.cpu.icache.overall_miss_rate::total     0.019628                       # miss rate for overall accesses
system.cpu.icache.ReadReq_avg_miss_latency::cpu.inst 76464.314828                       # average ReadReq miss latency
system.cpu.icache.ReadReq_avg_miss_latency::total 76464.314828                       # average ReadReq miss latency
system.cpu.icache.demand_avg_miss_latency::cpu.inst 76464.314828                       # average overall miss latency
system.cpu.icache.demand_avg_miss_latency::total 76464.314828                       # average overall miss latency
system.cpu.icache.overall_avg_miss_latency::cpu.inst 76464.314828                       # average overall miss latency
system.cpu.icache.overall_avg_miss_latency::total 76464.314828                       # average overall miss latency
system.cpu.icache.blocked_cycles::no_mshrs            0                       # number of cycles access was blocked
system.cpu.icache.blocked_cycles::no_targets            0                       # number of cycles access was blocked
system.cpu.icache.blocked::no_mshrs                 0                       # number of cycles access was blocked
system.cpu.icache.blocked::no_targets               0                       # number of cycles access was blocked
system.cpu.icache.avg_blocked_cycles::no_mshrs          nan                       # average number of cycles each access was blocked
system.cpu.icache.avg_blocked_cycles::no_targets          nan                       # average number of cycles each access was blocked
system.cpu.icache.ReadReq_mshr_misses::cpu.inst         1369                       # number of ReadReq MSHR misses
system.cpu.icache.ReadReq_mshr_misses::total         1369                       # number of ReadReq MSHR misses
system.cpu.icache.demand_mshr_misses::cpu.inst         1369                       # number of demand (read+write) MSHR misses
system.cpu.icache.demand_mshr_misses::total         1369                       # number of demand (read+write) MSHR misses
system.cpu.icache.overall_mshr_misses::cpu.inst         1369                       # number of overall MSHR misses
system.cpu.icache.overall_mshr_misses::total         1369                       # number of overall MSHR misses
system.cpu.icache.ReadReq_mshr_miss_latency::cpu.inst    102854735                       # number of ReadReq MSHR miss cycles
system.cpu.icache.ReadReq_mshr_miss_latency::total    102854735                       # number of ReadReq MSHR miss cycles
system.cpu.icache.demand_mshr_miss_latency::cpu.inst    102854735                       # number of demand (read+write) MSHR miss cycles
system.cpu.icache.demand_mshr_miss_latency::total    102854735                       # number of demand (read+write) MSHR miss cycles
system.cpu.icache.overall_mshr_miss_latency::cpu.inst    102854735                       # number of overall MSHR miss cycles
system.cpu.icache.overall_mshr_miss_latency::total    102854735                       # number of overall MSHR miss cycles
system.cpu.icache.ReadReq_mshr_miss_rate::cpu.inst     0.019628                       # mshr miss rate for ReadReq accesses
system.cpu.icache.ReadReq_mshr_miss_rate::total     0.019628                       # mshr miss rate for ReadReq accesses
system.cpu.icache.demand_mshr_miss_rate::cpu.inst     0.019628                       # mshr miss rate for demand accesses
system.cpu.icache.demand_mshr_miss_rate::total     0.019628                       # mshr miss rate for demand accesses
system.cpu.icache.overall_mshr_miss_rate::cpu.inst     0.019628                       # mshr miss rate for overall accesses
system.cpu.icache.overall_mshr_miss_rate::total     0.019628                       # mshr miss rate for overall accesses
system.cpu.icache.ReadReq_avg_mshr_miss_latency::cpu.inst 75131.289262                       # average ReadReq mshr miss latency
system.cpu.icache.ReadReq_avg_mshr_miss_latency::total 75131.289262                       # average ReadReq mshr miss latency
system.cpu.icache.demand_avg_mshr_miss_latency::cpu.inst 75131.289262                       # average overall mshr miss latency
system.cpu.icache.demand_avg_mshr_miss_latency::total 75131.289262                       # average overall mshr miss latency
system.cpu.icache.overall_avg_mshr_miss_latency::cpu.inst 75131.289262                       # average overall mshr miss latency
system.cpu.icache.overall_avg_mshr_miss_latency::total 75131.289262                       # average overall mshr miss latency
system.l2bus.snoop_filter.tot_requests           6734                       # Total number of requests made to the snoop filter.
system.l2bus.snoop_filter.hit_single_requests         2615                       # Number of requests hitting in the snoop filter with a single holder of the requested data.
system.l2bus.snoop_filter.hit_multi_requests            4                       # Number of requests hitting in the snoop filter with multiple (>1) holders of the requested data.
system.l2bus.snoop_filter.tot_snoops                0                       # Total number of snoops made to the snoop filter.
system.l2bus.snoop_filter.hit_single_snoops            0                       # Number of snoops hitting in the snoop filter with a single holder of the requested data.
system.l2bus.snoop_filter.hit_multi_snoops            0                       # Number of snoops hitting in the snoop filter with multiple (>1) holders of the requested data.
system.l2bus.pwrStateResidencyTicks::UNDEFINED    600514774                       # Cumulative time (in ticks) in various power states
system.l2bus.trans_dist::ReadResp                3525                       # Transaction distribution
system.l2bus.trans_dist::WritebackDirty           599                       # Transaction distribution
system.l2bus.trans_dist::CleanEvict              2014                       # Transaction distribution
system.l2bus.trans_dist::ReadExReq                595                       # Transaction distribution
system.l2bus.trans_dist::ReadExResp               595                       # Transaction distribution
system.l2bus.trans_dist::ReadSharedReq           3526                       # Transaction distribution
system.l2bus.pkt_count_system.cpu.icache.mem_side::system.l2cache.cpu_side         3622                       # Packet count per connected master and slave (bytes)
system.l2bus.pkt_count_system.cpu.dcache.mem_side::system.l2cache.cpu_side         7232                       # Packet count per connected master and slave (bytes)
system.l2bus.pkt_count::total                   10854                       # Packet count per connected master and slave (bytes)
system.l2bus.pkt_size_system.cpu.icache.mem_side::system.l2cache.cpu_side        87552                       # Cumulative packet size per connected master and slave (bytes)
system.l2bus.pkt_size_system.cpu.dcache.mem_side::system.l2cache.cpu_side       214464                       # Cumulative packet size per connected master and slave (bytes)
system.l2bus.pkt_size::total                   302016                       # Cumulative packet size per connected master and slave (bytes)
system.l2bus.snoops                                 0                       # Total snoops (count)
system.l2bus.snoopTraffic                           0                       # Total snoop traffic (bytes)
system.l2bus.snoop_fanout::samples               4121                       # Request fanout histogram
system.l2bus.snoop_fanout::mean              0.001456                       # Request fanout histogram
system.l2bus.snoop_fanout::stdev             0.038134                       # Request fanout histogram
system.l2bus.snoop_fanout::underflows               0      0.00%      0.00% # Request fanout histogram
system.l2bus.snoop_fanout::0                     4115     99.85%     99.85% # Request fanout histogram
system.l2bus.snoop_fanout::1                        6      0.15%    100.00% # Request fanout histogram
system.l2bus.snoop_fanout::2                        0      0.00%    100.00% # Request fanout histogram
system.l2bus.snoop_fanout::overflows                0      0.00%    100.00% # Request fanout histogram
system.l2bus.snoop_fanout::min_value                0                       # Request fanout histogram
system.l2bus.snoop_fanout::max_value                1                       # Request fanout histogram
system.l2bus.snoop_fanout::total                 4121                       # Request fanout histogram
system.l2bus.reqLayer0.occupancy              5290644                       # Layer occupancy (ticks)
system.l2bus.reqLayer0.utilization                0.9                       # Layer utilization (%)
system.l2bus.respLayer0.occupancy             2737368                       # Layer occupancy (ticks)
system.l2bus.respLayer0.utilization               0.5                       # Layer utilization (%)
system.l2bus.respLayer1.occupancy             5506752                       # Layer occupancy (ticks)
system.l2bus.respLayer1.utilization               0.9                       # Layer utilization (%)
system.l2cache.tags.pwrStateResidencyTicks::UNDEFINED    600514774                       # Cumulative time (in ticks) in various power states
system.l2cache.tags.replacements                    0                       # number of replacements
system.l2cache.tags.tagsinuse             2142.235015                       # Cycle average of tags in use
system.l2cache.tags.total_refs                   3186                       # Total number of references to valid blocks.
system.l2cache.tags.sampled_refs                 3543                       # Sample count of references to valid blocks.
system.l2cache.tags.avg_refs                 0.899238                       # Average number of references to valid blocks.
system.l2cache.tags.warmup_cycle                    0                       # Cycle when the warmup percentage was hit.
system.l2cache.tags.occ_blocks::cpu.inst   710.791795                       # Average occupied blocks per requestor
system.l2cache.tags.occ_blocks::cpu.data  1431.443220                       # Average occupied blocks per requestor
system.l2cache.tags.occ_percent::cpu.inst     0.010846                       # Average percentage of cache occupancy
system.l2cache.tags.occ_percent::cpu.data     0.021842                       # Average percentage of cache occupancy
system.l2cache.tags.occ_percent::total       0.032688                       # Average percentage of cache occupancy
system.l2cache.tags.occ_task_id_blocks::1024         3543                       # Occupied blocks per task id
system.l2cache.tags.age_task_id_blocks_1024::0           83                       # Occupied blocks per task id
system.l2cache.tags.age_task_id_blocks_1024::1          194                       # Occupied blocks per task id
system.l2cache.tags.age_task_id_blocks_1024::2         3266                       # Occupied blocks per task id
system.l2cache.tags.occ_task_id_percent::1024     0.054062                       # Percentage of cache occupancy per task id
system.l2cache.tags.tag_accesses                57383                       # Number of tag accesses
system.l2cache.tags.data_accesses               57383                       # Number of data accesses
system.l2cache.pwrStateResidencyTicks::UNDEFINED    600514774                       # Cumulative time (in ticks) in various power states
system.l2cache.WritebackDirty_hits::writebacks          599                       # number of WritebackDirty hits
system.l2cache.WritebackDirty_hits::total          599                       # number of WritebackDirty hits
system.l2cache.ReadExReq_hits::cpu.data            64                       # number of ReadExReq hits
system.l2cache.ReadExReq_hits::total               64                       # number of ReadExReq hits
system.l2cache.ReadSharedReq_hits::cpu.inst          237                       # number of ReadSharedReq hits
system.l2cache.ReadSharedReq_hits::cpu.data          276                       # number of ReadSharedReq hits
system.l2cache.ReadSharedReq_hits::total          513                       # number of ReadSharedReq hits
system.l2cache.demand_hits::cpu.inst              237                       # number of demand (read+write) hits
system.l2cache.demand_hits::cpu.data              340                       # number of demand (read+write) hits
system.l2cache.demand_hits::total                 577                       # number of demand (read+write) hits
system.l2cache.overall_hits::cpu.inst             237                       # number of overall hits
system.l2cache.overall_hits::cpu.data             340                       # number of overall hits
system.l2cache.overall_hits::total                577                       # number of overall hits
system.l2cache.ReadExReq_misses::cpu.data          531                       # number of ReadExReq misses
system.l2cache.ReadExReq_misses::total            531                       # number of ReadExReq misses
system.l2cache.ReadSharedReq_misses::cpu.inst         1132                       # number of ReadSharedReq misses
system.l2cache.ReadSharedReq_misses::cpu.data         1881                       # number of ReadSharedReq misses
system.l2cache.ReadSharedReq_misses::total         3013                       # number of ReadSharedReq misses
system.l2cache.demand_misses::cpu.inst           1132                       # number of demand (read+write) misses
system.l2cache.demand_misses::cpu.data           2412                       # number of demand (read+write) misses
system.l2cache.demand_misses::total              3544                       # number of demand (read+write) misses
system.l2cache.overall_misses::cpu.inst          1132                       # number of overall misses
system.l2cache.overall_misses::cpu.data          2412                       # number of overall misses
system.l2cache.overall_misses::total             3544                       # number of overall misses
system.l2cache.ReadExReq_miss_latency::cpu.data     44894436                       # number of ReadExReq miss cycles
system.l2cache.ReadExReq_miss_latency::total     44894436                       # number of ReadExReq miss cycles
system.l2cache.ReadSharedReq_miss_latency::cpu.inst     96791038                       # number of ReadSharedReq miss cycles
system.l2cache.ReadSharedReq_miss_latency::cpu.data    165179215                       # number of ReadSharedReq miss cycles
system.l2cache.ReadSharedReq_miss_latency::total    261970253                       # number of ReadSharedReq miss cycles
system.l2cache.demand_miss_latency::cpu.inst     96791038                       # number of demand (read+write) miss cycles
system.l2cache.demand_miss_latency::cpu.data    210073651                       # number of demand (read+write) miss cycles
system.l2cache.demand_miss_latency::total    306864689                       # number of demand (read+write) miss cycles
system.l2cache.overall_miss_latency::cpu.inst     96791038                       # number of overall miss cycles
system.l2cache.overall_miss_latency::cpu.data    210073651                       # number of overall miss cycles
system.l2cache.overall_miss_latency::total    306864689                       # number of overall miss cycles
system.l2cache.WritebackDirty_accesses::writebacks          599                       # number of WritebackDirty accesses(hits+misses)
system.l2cache.WritebackDirty_accesses::total          599                       # number of WritebackDirty accesses(hits+misses)
system.l2cache.ReadExReq_accesses::cpu.data          595                       # number of ReadExReq accesses(hits+misses)
system.l2cache.ReadExReq_accesses::total          595                       # number of ReadExReq accesses(hits+misses)
system.l2cache.ReadSharedReq_accesses::cpu.inst         1369                       # number of ReadSharedReq accesses(hits+misses)
system.l2cache.ReadSharedReq_accesses::cpu.data         2157                       # number of ReadSharedReq accesses(hits+misses)
system.l2cache.ReadSharedReq_accesses::total         3526                       # number of ReadSharedReq accesses(hits+misses)
system.l2cache.demand_accesses::cpu.inst         1369                       # number of demand (read+write) accesses
system.l2cache.demand_accesses::cpu.data         2752                       # number of demand (read+write) accesses
system.l2cache.demand_accesses::total            4121                       # number of demand (read+write) accesses
system.l2cache.overall_accesses::cpu.inst         1369                       # number of overall (read+write) accesses
system.l2cache.overall_accesses::cpu.data         2752                       # number of overall (read+write) accesses
system.l2cache.overall_accesses::total           4121                       # number of overall (read+write) accesses
system.l2cache.ReadExReq_miss_rate::cpu.data     0.892437                       # miss rate for ReadExReq accesses
system.l2cache.ReadExReq_miss_rate::total     0.892437                       # miss rate for ReadExReq accesses
system.l2cache.ReadSharedReq_miss_rate::cpu.inst     0.826881                       # miss rate for ReadSharedReq accesses
system.l2cache.ReadSharedReq_miss_rate::cpu.data     0.872045                       # miss rate for ReadSharedReq accesses
system.l2cache.ReadSharedReq_miss_rate::total     0.854509                       # miss rate for ReadSharedReq accesses
system.l2cache.demand_miss_rate::cpu.inst     0.826881                       # miss rate for demand accesses
system.l2cache.demand_miss_rate::cpu.data     0.876453                       # miss rate for demand accesses
system.l2cache.demand_miss_rate::total       0.859985                       # miss rate for demand accesses
system.l2cache.overall_miss_rate::cpu.inst     0.826881                       # miss rate for overall accesses
system.l2cache.overall_miss_rate::cpu.data     0.876453                       # miss rate for overall accesses
system.l2cache.overall_miss_rate::total      0.859985                       # miss rate for overall accesses
system.l2cache.ReadExReq_avg_miss_latency::cpu.data 84546.960452                       # average ReadExReq miss latency
system.l2cache.ReadExReq_avg_miss_latency::total 84546.960452                       # average ReadExReq miss latency
system.l2cache.ReadSharedReq_avg_miss_latency::cpu.inst 85504.450530                       # average ReadSharedReq miss latency
system.l2cache.ReadSharedReq_avg_miss_latency::cpu.data 87814.574694                       # average ReadSharedReq miss latency
system.l2cache.ReadSharedReq_avg_miss_latency::total 86946.648855                       # average ReadSharedReq miss latency
system.l2cache.demand_avg_miss_latency::cpu.inst 85504.450530                       # average overall miss latency
system.l2cache.demand_avg_miss_latency::cpu.data 87095.211857                       # average overall miss latency
system.l2cache.demand_avg_miss_latency::total 86587.101862                       # average overall miss latency
system.l2cache.overall_avg_miss_latency::cpu.inst 85504.450530                       # average overall miss latency
system.l2cache.overall_avg_miss_latency::cpu.data 87095.211857                       # average overall miss latency
system.l2cache.overall_avg_miss_latency::total 86587.101862                       # average overall miss latency
system.l2cache.blocked_cycles::no_mshrs             0                       # number of cycles access was blocked
system.l2cache.blocked_cycles::no_targets            0                       # number of cycles access was blocked
system.l2cache.blocked::no_mshrs                    0                       # number of cycles access was blocked
system.l2cache.blocked::no_targets                  0                       # number of cycles access was blocked
system.l2cache.avg_blocked_cycles::no_mshrs          nan                       # average number of cycles each access was blocked
system.l2cache.avg_blocked_cycles::no_targets          nan                       # average number of cycles each access was blocked
system.l2cache.ReadExReq_mshr_misses::cpu.data          531                       # number of ReadExReq MSHR misses
system.l2cache.ReadExReq_mshr_misses::total          531                       # number of ReadExReq MSHR misses
system.l2cache.ReadSharedReq_mshr_misses::cpu.inst         1132                       # number of ReadSharedReq MSHR misses
system.l2cache.ReadSharedReq_mshr_misses::cpu.data         1881                       # number of ReadSharedReq MSHR misses
system.l2cache.ReadSharedReq_mshr_misses::total         3013                       # number of ReadSharedReq MSHR misses
system.l2cache.demand_mshr_misses::cpu.inst         1132                       # number of demand (read+write) MSHR misses
system.l2cache.demand_mshr_misses::cpu.data         2412                       # number of demand (read+write) MSHR misses
system.l2cache.demand_mshr_misses::total         3544                       # number of demand (read+write) MSHR misses
system.l2cache.overall_mshr_misses::cpu.inst         1132                       # number of overall MSHR misses
system.l2cache.overall_mshr_misses::cpu.data         2412                       # number of overall MSHR misses
system.l2cache.overall_mshr_misses::total         3544                       # number of overall MSHR misses
system.l2cache.ReadExReq_mshr_miss_latency::cpu.data     37810896                       # number of ReadExReq MSHR miss cycles
system.l2cache.ReadExReq_mshr_miss_latency::total     37810896                       # number of ReadExReq MSHR miss cycles
system.l2cache.ReadSharedReq_mshr_miss_latency::cpu.inst     81703498                       # number of ReadSharedReq MSHR miss cycles
system.l2cache.ReadSharedReq_mshr_miss_latency::cpu.data    140086675                       # number of ReadSharedReq MSHR miss cycles
system.l2cache.ReadSharedReq_mshr_miss_latency::total    221790173                       # number of ReadSharedReq MSHR miss cycles
system.l2cache.demand_mshr_miss_latency::cpu.inst     81703498                       # number of demand (read+write) MSHR miss cycles
system.l2cache.demand_mshr_miss_latency::cpu.data    177897571                       # number of demand (read+write) MSHR miss cycles
system.l2cache.demand_mshr_miss_latency::total    259601069                       # number of demand (read+write) MSHR miss cycles
system.l2cache.overall_mshr_miss_latency::cpu.inst     81703498                       # number of overall MSHR miss cycles
system.l2cache.overall_mshr_miss_latency::cpu.data    177897571                       # number of overall MSHR miss cycles
system.l2cache.overall_mshr_miss_latency::total    259601069                       # number of overall MSHR miss cycles
system.l2cache.ReadExReq_mshr_miss_rate::cpu.data     0.892437                       # mshr miss rate for ReadExReq accesses
system.l2cache.ReadExReq_mshr_miss_rate::total     0.892437                       # mshr miss rate for ReadExReq accesses
system.l2cache.ReadSharedReq_mshr_miss_rate::cpu.inst     0.826881                       # mshr miss rate for ReadSharedReq accesses
system.l2cache.ReadSharedReq_mshr_miss_rate::cpu.data     0.872045                       # mshr miss rate for ReadSharedReq accesses
system.l2cache.ReadSharedReq_mshr_miss_rate::total     0.854509                       # mshr miss rate for ReadSharedReq accesses
system.l2cache.demand_mshr_miss_rate::cpu.inst     0.826881                       # mshr miss rate for demand accesses
system.l2cache.demand_mshr_miss_rate::cpu.data     0.876453                       # mshr miss rate for demand accesses
system.l2cache.demand_mshr_miss_rate::total     0.859985                       # mshr miss rate for demand accesses
system.l2cache.overall_mshr_miss_rate::cpu.inst     0.826881                       # mshr miss rate for overall accesses
system.l2cache.overall_mshr_miss_rate::cpu.data     0.876453                       # mshr miss rate for overall accesses
system.l2cache.overall_mshr_miss_rate::total     0.859985                       # mshr miss rate for overall accesses
system.l2cache.ReadExReq_avg_mshr_miss_latency::cpu.data 71206.960452                       # average ReadExReq mshr miss latency
system.l2cache.ReadExReq_avg_mshr_miss_latency::total 71206.960452                       # average ReadExReq mshr miss latency
system.l2cache.ReadSharedReq_avg_mshr_miss_latency::cpu.inst 72176.234982                       # average ReadSharedReq mshr miss latency
system.l2cache.ReadSharedReq_avg_mshr_miss_latency::cpu.data 74474.574694                       # average ReadSharedReq mshr miss latency
system.l2cache.ReadSharedReq_avg_mshr_miss_latency::total 73611.076336                       # average ReadSharedReq mshr miss latency
system.l2cache.demand_avg_mshr_miss_latency::cpu.inst 72176.234982                       # average overall mshr miss latency
system.l2cache.demand_avg_mshr_miss_latency::cpu.data 73755.211857                       # average overall mshr miss latency
system.l2cache.demand_avg_mshr_miss_latency::total 73250.865971                       # average overall mshr miss latency
system.l2cache.overall_avg_mshr_miss_latency::cpu.inst 72176.234982                       # average overall mshr miss latency
system.l2cache.overall_avg_mshr_miss_latency::cpu.data 73755.211857                       # average overall mshr miss latency
system.l2cache.overall_avg_mshr_miss_latency::total 73250.865971                       # average overall mshr miss latency
system.membus.snoop_filter.tot_requests          3543                       # Total number of requests made to the snoop filter.
system.membus.snoop_filter.hit_single_requests            0                       # Number of requests hitting in the snoop filter with a single holder of the requested data.
system.membus.snoop_filter.hit_multi_requests            0                       # Number of requests hitting in the snoop filter with multiple (>1) holders of the requested data.
system.membus.snoop_filter.tot_snoops               0                       # Total number of snoops made to the snoop filter.
system.membus.snoop_filter.hit_single_snoops            0                       # Number of snoops hitting in the snoop filter with a single holder of the requested data.
system.membus.snoop_filter.hit_multi_snoops            0                       # Number of snoops hitting in the snoop filter with multiple (>1) holders of the requested data.
system.membus.pwrStateResidencyTicks::UNDEFINED    600514774                       # Cumulative time (in ticks) in various power states
system.membus.trans_dist::ReadResp               3012                       # Transaction distribution
system.membus.trans_dist::ReadExReq               531                       # Transaction distribution
system.membus.trans_dist::ReadExResp              531                       # Transaction distribution
system.membus.trans_dist::ReadSharedReq          3012                       # Transaction distribution
system.membus.pkt_count_system.l2cache.mem_side::system.mem_ctrl.port         7086                       # Packet count per connected master and slave (bytes)
system.membus.pkt_count_system.l2cache.mem_side::total         7086                       # Packet count per connected master and slave (bytes)
system.membus.pkt_count::total                   7086                       # Packet count per connected master and slave (bytes)
system.membus.pkt_size_system.l2cache.mem_side::system.mem_ctrl.port       226752                       # Cumulative packet size per connected master and slave (bytes)
system.membus.pkt_size_system.l2cache.mem_side::total       226752                       # Cumulative packet size per connected master and slave (bytes)
system.membus.pkt_size::total                  226752                       # Cumulative packet size per connected master and slave (bytes)
system.membus.snoops                                0                       # Total snoops (count)
system.membus.snoopTraffic                          0                       # Total snoop traffic (bytes)
system.membus.snoop_fanout::samples              3543                       # Request fanout histogram
system.membus.snoop_fanout::mean                    0                       # Request fanout histogram
system.membus.snoop_fanout::stdev                   0                       # Request fanout histogram
system.membus.snoop_fanout::underflows              0      0.00%      0.00% # Request fanout histogram
system.membus.snoop_fanout::0                    3543    100.00%    100.00% # Request fanout histogram
system.membus.snoop_fanout::1                       0      0.00%    100.00% # Request fanout histogram
system.membus.snoop_fanout::overflows               0      0.00%    100.00% # Request fanout histogram
system.membus.snoop_fanout::min_value               0                       # Request fanout histogram
system.membus.snoop_fanout::max_value               0                       # Request fanout histogram
system.membus.snoop_fanout::total                3543                       # Request fanout histogram
system.membus.reqLayer2.occupancy             2363181                       # Layer occupancy (ticks)
system.membus.reqLayer2.utilization               0.4                       # Layer utilization (%)
system.membus.respLayer0.occupancy           13715059                       # Layer occupancy (ticks)
system.membus.respLayer0.utilization              2.3                       # Layer utilization (%)

---------- End Simulation Statistics   ----------
