
---------- Begin Simulation Statistics ----------
sim_seconds                                  0.000761                       # Number of seconds simulated
sim_ticks                                   760926940                       # Number of ticks simulated
final_tick                                  760926940                       # Number of ticks from beginning of simulation (restored from checkpoints and never reset)
sim_freq                                 1000000000000                       # Frequency of simulated ticks
host_inst_rate                                 431709                       # Simulator instruction rate (inst/s)
host_op_rate                                   790854                       # Simulator op (including micro ops) rate (op/s)
host_tick_rate                             1822042695                       # Simulator tick rate (ticks/s)
host_mem_usage                                 680716                       # Number of bytes of host memory used
host_seconds                                     0.42                       # Real time elapsed on the host
sim_insts                                      180286                       # Number of instructions simulated
sim_ops                                        330274                       # Number of ops (including micro ops) simulated
system.clk_domain.voltage_domain.voltage            1                       # Voltage in Volts
system.clk_domain.clock                           667                       # Clock period in ticks
system.mem_ctrl.pwrStateResidencyTicks::UNDEFINED    760926940                       # Cumulative time (in ticks) in various power states
system.mem_ctrl.bytes_read::cpu.inst            53824                       # Number of bytes read from this memory
system.mem_ctrl.bytes_read::cpu.data           154112                       # Number of bytes read from this memory
system.mem_ctrl.bytes_read::total              207936                       # Number of bytes read from this memory
system.mem_ctrl.bytes_inst_read::cpu.inst        53824                       # Number of instructions bytes read from this memory
system.mem_ctrl.bytes_inst_read::total          53824                       # Number of instructions bytes read from this memory
system.mem_ctrl.num_reads::cpu.inst               841                       # Number of read requests responded to by this memory
system.mem_ctrl.num_reads::cpu.data              2408                       # Number of read requests responded to by this memory
system.mem_ctrl.num_reads::total                 3249                       # Number of read requests responded to by this memory
system.mem_ctrl.bw_read::cpu.inst            70734780                       # Total read bandwidth from this memory (bytes/s)
system.mem_ctrl.bw_read::cpu.data           202531928                       # Total read bandwidth from this memory (bytes/s)
system.mem_ctrl.bw_read::total              273266708                       # Total read bandwidth from this memory (bytes/s)
system.mem_ctrl.bw_inst_read::cpu.inst       70734780                       # Instruction read bandwidth from this memory (bytes/s)
system.mem_ctrl.bw_inst_read::total          70734780                       # Instruction read bandwidth from this memory (bytes/s)
system.mem_ctrl.bw_total::cpu.inst           70734780                       # Total bandwidth to/from this memory (bytes/s)
system.mem_ctrl.bw_total::cpu.data          202531928                       # Total bandwidth to/from this memory (bytes/s)
system.mem_ctrl.bw_total::total             273266708                       # Total bandwidth to/from this memory (bytes/s)
system.mem_ctrl.readReqs                         3249                       # Number of read requests accepted
system.mem_ctrl.writeReqs                           0                       # Number of write requests accepted
system.mem_ctrl.readBursts                       6498                       # Number of DRAM read bursts, including those serviced by the write queue
system.mem_ctrl.writeBursts                         0                       # Number of DRAM write bursts, including those merged in the write queue
system.mem_ctrl.bytesReadDRAM                  207936                       # Total number of bytes read from DRAM
system.mem_ctrl.bytesReadWrQ                        0                       # Total number of bytes read from write queue
system.mem_ctrl.bytesWritten                        0                       # Total number of bytes written to DRAM
system.mem_ctrl.bytesReadSys                   207936                       # Total read bytes from the system interface side
system.mem_ctrl.bytesWrittenSys                     0                       # Total written bytes from the system interface side
system.mem_ctrl.servicedByWrQ                       0                       # Number of DRAM read bursts serviced by the write queue
system.mem_ctrl.mergedWrBursts                      0                       # Number of DRAM write bursts merged with an existing one
system.mem_ctrl.neitherReadNorWriteReqs             0                       # Number of requests that are neither read nor write
system.mem_ctrl.perBankRdBursts::0                806                       # Per bank write bursts
system.mem_ctrl.perBankRdBursts::1                802                       # Per bank write bursts
system.mem_ctrl.perBankRdBursts::2                816                       # Per bank write bursts
system.mem_ctrl.perBankRdBursts::3                828                       # Per bank write bursts
system.mem_ctrl.perBankRdBursts::4                746                       # Per bank write bursts
system.mem_ctrl.perBankRdBursts::5                870                       # Per bank write bursts
system.mem_ctrl.perBankRdBursts::6                828                       # Per bank write bursts
system.mem_ctrl.perBankRdBursts::7                802                       # Per bank write bursts
system.mem_ctrl.perBankWrBursts::0                  0                       # Per bank write bursts
system.mem_ctrl.perBankWrBursts::1                  0                       # Per bank write bursts
system.mem_ctrl.perBankWrBursts::2                  0                       # Per bank write bursts
system.mem_ctrl.perBankWrBursts::3                  0                       # Per bank write bursts
system.mem_ctrl.perBankWrBursts::4                  0                       # Per bank write bursts
system.mem_ctrl.perBankWrBursts::5                  0                       # Per bank write bursts
system.mem_ctrl.perBankWrBursts::6                  0                       # Per bank write bursts
system.mem_ctrl.perBankWrBursts::7                  0                       # Per bank write bursts
system.mem_ctrl.numRdRetry                          0                       # Number of times read queue was full causing retry
system.mem_ctrl.numWrRetry                          0                       # Number of times write queue was full causing retry
system.mem_ctrl.totGap                      760828891                       # Total gap between requests
system.mem_ctrl.readPktSize::0                      0                       # Read request sizes (log2)
system.mem_ctrl.readPktSize::1                      0                       # Read request sizes (log2)
system.mem_ctrl.readPktSize::2                      0                       # Read request sizes (log2)
system.mem_ctrl.readPktSize::3                      0                       # Read request sizes (log2)
system.mem_ctrl.readPktSize::4                      0                       # Read request sizes (log2)
system.mem_ctrl.readPktSize::5                   6498                       # Read request sizes (log2)
system.mem_ctrl.writePktSize::0                     0                       # Write request sizes (log2)
system.mem_ctrl.writePktSize::1                     0                       # Write request sizes (log2)
system.mem_ctrl.writePktSize::2                     0                       # Write request sizes (log2)
system.mem_ctrl.writePktSize::3                     0                       # Write request sizes (log2)
system.mem_ctrl.writePktSize::4                     0                       # Write request sizes (log2)
system.mem_ctrl.writePktSize::5                     0                       # Write request sizes (log2)
system.mem_ctrl.rdQLenPdf::0                     3249                       # What read queue length does an incoming req see
system.mem_ctrl.rdQLenPdf::1                     3249                       # What read queue length does an incoming req see
system.mem_ctrl.rdQLenPdf::2                        0                       # What read queue length does an incoming req see
system.mem_ctrl.rdQLenPdf::3                        0                       # What read queue length does an incoming req see
system.mem_ctrl.rdQLenPdf::4                        0                       # What read queue length does an incoming req see
system.mem_ctrl.rdQLenPdf::5                        0                       # What read queue length does an incoming req see
system.mem_ctrl.rdQLenPdf::6                        0                       # What read queue length does an incoming req see
system.mem_ctrl.rdQLenPdf::7                        0                       # What read queue length does an incoming req see
system.mem_ctrl.rdQLenPdf::8                        0                       # What read queue length does an incoming req see
system.mem_ctrl.rdQLenPdf::9                        0                       # What read queue length does an incoming req see
system.mem_ctrl.rdQLenPdf::10                       0                       # What read queue length does an incoming req see
system.mem_ctrl.rdQLenPdf::11                       0                       # What read queue length does an incoming req see
system.mem_ctrl.rdQLenPdf::12                       0                       # What read queue length does an incoming req see
system.mem_ctrl.rdQLenPdf::13                       0                       # What read queue length does an incoming req see
system.mem_ctrl.rdQLenPdf::14                       0                       # What read queue length does an incoming req see
system.mem_ctrl.rdQLenPdf::15                       0                       # What read queue length does an incoming req see
system.mem_ctrl.rdQLenPdf::16                       0                       # What read queue length does an incoming req see
system.mem_ctrl.rdQLenPdf::17                       0                       # What read queue length does an incoming req see
system.mem_ctrl.rdQLenPdf::18                       0                       # What read queue length does an incoming req see
system.mem_ctrl.rdQLenPdf::19                       0                       # What read queue length does an incoming req see
system.mem_ctrl.rdQLenPdf::20                       0                       # What read queue length does an incoming req see
system.mem_ctrl.rdQLenPdf::21                       0                       # What read queue length does an incoming req see
system.mem_ctrl.rdQLenPdf::22                       0                       # What read queue length does an incoming req see
system.mem_ctrl.rdQLenPdf::23                       0                       # What read queue length does an incoming req see
system.mem_ctrl.rdQLenPdf::24                       0                       # What read queue length does an incoming req see
system.mem_ctrl.rdQLenPdf::25                       0                       # What read queue length does an incoming req see
system.mem_ctrl.rdQLenPdf::26                       0                       # What read queue length does an incoming req see
system.mem_ctrl.rdQLenPdf::27                       0                       # What read queue length does an incoming req see
system.mem_ctrl.rdQLenPdf::28                       0                       # What read queue length does an incoming req see
system.mem_ctrl.rdQLenPdf::29                       0                       # What read queue length does an incoming req see
system.mem_ctrl.rdQLenPdf::30                       0                       # What read queue length does an incoming req see
system.mem_ctrl.rdQLenPdf::31                       0                       # What read queue length does an incoming req see
system.mem_ctrl.wrQLenPdf::0                        0                       # What write queue length does an incoming req see
system.mem_ctrl.wrQLenPdf::1                        0                       # What write queue length does an incoming req see
system.mem_ctrl.wrQLenPdf::2                        0                       # What write queue length does an incoming req see
system.mem_ctrl.wrQLenPdf::3                        0                       # What write queue length does an incoming req see
system.mem_ctrl.wrQLenPdf::4                        0                       # What write queue length does an incoming req see
system.mem_ctrl.wrQLenPdf::5                        0                       # What write queue length does an incoming req see
system.mem_ctrl.wrQLenPdf::6                        0                       # What write queue length does an incoming req see
system.mem_ctrl.wrQLenPdf::7                        0                       # What write queue length does an incoming req see
system.mem_ctrl.wrQLenPdf::8                        0                       # What write queue length does an incoming req see
system.mem_ctrl.wrQLenPdf::9                        0                       # What write queue length does an incoming req see
system.mem_ctrl.wrQLenPdf::10                       0                       # What write queue length does an incoming req see
system.mem_ctrl.wrQLenPdf::11                       0                       # What write queue length does an incoming req see
system.mem_ctrl.wrQLenPdf::12                       0                       # What write queue length does an incoming req see
system.mem_ctrl.wrQLenPdf::13                       0                       # What write queue length does an incoming req see
system.mem_ctrl.wrQLenPdf::14                       0                       # What write queue length does an incoming req see
system.mem_ctrl.wrQLenPdf::15                       0                       # What write queue length does an incoming req see
system.mem_ctrl.wrQLenPdf::16                       0                       # What write queue length does an incoming req see
system.mem_ctrl.wrQLenPdf::17                       0                       # What write queue length does an incoming req see
system.mem_ctrl.wrQLenPdf::18                       0                       # What write queue length does an incoming req see
system.mem_ctrl.wrQLenPdf::19                       0                       # What write queue length does an incoming req see
system.mem_ctrl.wrQLenPdf::20                       0                       # What write queue length does an incoming req see
system.mem_ctrl.wrQLenPdf::21                       0                       # What write queue length does an incoming req see
system.mem_ctrl.wrQLenPdf::22                       0                       # What write queue length does an incoming req see
system.mem_ctrl.wrQLenPdf::23                       0                       # What write queue length does an incoming req see
system.mem_ctrl.wrQLenPdf::24                       0                       # What write queue length does an incoming req see
system.mem_ctrl.wrQLenPdf::25                       0                       # What write queue length does an incoming req see
system.mem_ctrl.wrQLenPdf::26                       0                       # What write queue length does an incoming req see
system.mem_ctrl.wrQLenPdf::27                       0                       # What write queue length does an incoming req see
system.mem_ctrl.wrQLenPdf::28                       0                       # What write queue length does an incoming req see
system.mem_ctrl.wrQLenPdf::29                       0                       # What write queue length does an incoming req see
system.mem_ctrl.wrQLenPdf::30                       0                       # What write queue length does an incoming req see
system.mem_ctrl.wrQLenPdf::31                       0                       # What write queue length does an incoming req see
system.mem_ctrl.wrQLenPdf::32                       0                       # What write queue length does an incoming req see
system.mem_ctrl.wrQLenPdf::33                       0                       # What write queue length does an incoming req see
system.mem_ctrl.wrQLenPdf::34                       0                       # What write queue length does an incoming req see
system.mem_ctrl.wrQLenPdf::35                       0                       # What write queue length does an incoming req see
system.mem_ctrl.wrQLenPdf::36                       0                       # What write queue length does an incoming req see
system.mem_ctrl.wrQLenPdf::37                       0                       # What write queue length does an incoming req see
system.mem_ctrl.wrQLenPdf::38                       0                       # What write queue length does an incoming req see
system.mem_ctrl.wrQLenPdf::39                       0                       # What write queue length does an incoming req see
system.mem_ctrl.wrQLenPdf::40                       0                       # What write queue length does an incoming req see
system.mem_ctrl.wrQLenPdf::41                       0                       # What write queue length does an incoming req see
system.mem_ctrl.wrQLenPdf::42                       0                       # What write queue length does an incoming req see
system.mem_ctrl.wrQLenPdf::43                       0                       # What write queue length does an incoming req see
system.mem_ctrl.wrQLenPdf::44                       0                       # What write queue length does an incoming req see
system.mem_ctrl.wrQLenPdf::45                       0                       # What write queue length does an incoming req see
system.mem_ctrl.wrQLenPdf::46                       0                       # What write queue length does an incoming req see
system.mem_ctrl.wrQLenPdf::47                       0                       # What write queue length does an incoming req see
system.mem_ctrl.wrQLenPdf::48                       0                       # What write queue length does an incoming req see
system.mem_ctrl.wrQLenPdf::49                       0                       # What write queue length does an incoming req see
system.mem_ctrl.wrQLenPdf::50                       0                       # What write queue length does an incoming req see
system.mem_ctrl.wrQLenPdf::51                       0                       # What write queue length does an incoming req see
system.mem_ctrl.wrQLenPdf::52                       0                       # What write queue length does an incoming req see
system.mem_ctrl.wrQLenPdf::53                       0                       # What write queue length does an incoming req see
system.mem_ctrl.wrQLenPdf::54                       0                       # What write queue length does an incoming req see
system.mem_ctrl.wrQLenPdf::55                       0                       # What write queue length does an incoming req see
system.mem_ctrl.wrQLenPdf::56                       0                       # What write queue length does an incoming req see
system.mem_ctrl.wrQLenPdf::57                       0                       # What write queue length does an incoming req see
system.mem_ctrl.wrQLenPdf::58                       0                       # What write queue length does an incoming req see
system.mem_ctrl.wrQLenPdf::59                       0                       # What write queue length does an incoming req see
system.mem_ctrl.wrQLenPdf::60                       0                       # What write queue length does an incoming req see
system.mem_ctrl.wrQLenPdf::61                       0                       # What write queue length does an incoming req see
system.mem_ctrl.wrQLenPdf::62                       0                       # What write queue length does an incoming req see
system.mem_ctrl.wrQLenPdf::63                       0                       # What write queue length does an incoming req see
system.mem_ctrl.bytesPerActivate::samples         1280                       # Bytes accessed per row activation
system.mem_ctrl.bytesPerActivate::mean     162.350000                       # Bytes accessed per row activation
system.mem_ctrl.bytesPerActivate::gmean    118.333083                       # Bytes accessed per row activation
system.mem_ctrl.bytesPerActivate::stdev    143.736628                       # Bytes accessed per row activation
system.mem_ctrl.bytesPerActivate::0-63              2      0.16%      0.16% # Bytes accessed per row activation
system.mem_ctrl.bytesPerActivate::64-127          682     53.28%     53.44% # Bytes accessed per row activation
system.mem_ctrl.bytesPerActivate::128-191          181     14.14%     67.58% # Bytes accessed per row activation
system.mem_ctrl.bytesPerActivate::192-255          120      9.38%     76.95% # Bytes accessed per row activation
system.mem_ctrl.bytesPerActivate::256-319           61      4.77%     81.72% # Bytes accessed per row activation
system.mem_ctrl.bytesPerActivate::320-383           49      3.83%     85.55% # Bytes accessed per row activation
system.mem_ctrl.bytesPerActivate::384-447           38      2.97%     88.52% # Bytes accessed per row activation
system.mem_ctrl.bytesPerActivate::448-511           52      4.06%     92.58% # Bytes accessed per row activation
system.mem_ctrl.bytesPerActivate::512-575           95      7.42%    100.00% # Bytes accessed per row activation
system.mem_ctrl.bytesPerActivate::total          1280                       # Bytes accessed per row activation
system.mem_ctrl.totQLat                     145223012                       # Total ticks spent queuing
system.mem_ctrl.totMemAccLat                291428012                       # Total ticks spent from burst creation until serviced by the DRAM
system.mem_ctrl.totBusLat                    48735000                       # Total ticks spent in databus transfers
system.mem_ctrl.avgQLat                      22348.88                       # Average queueing delay per DRAM burst
system.mem_ctrl.avgBusLat                     7500.00                       # Average bus latency per DRAM burst
system.mem_ctrl.avgMemAccLat                 44848.88                       # Average memory access latency per DRAM burst
system.mem_ctrl.avgRdBW                        273.27                       # Average DRAM read bandwidth in MiByte/s
system.mem_ctrl.avgWrBW                          0.00                       # Average achieved write bandwidth in MiByte/s
system.mem_ctrl.avgRdBWSys                     273.27                       # Average system read bandwidth in MiByte/s
system.mem_ctrl.avgWrBWSys                       0.00                       # Average system write bandwidth in MiByte/s
system.mem_ctrl.peakBW                        4266.00                       # Theoretical peak bandwidth in MiByte/s
system.mem_ctrl.busUtil                          6.41                       # Data bus utilization in percentage
system.mem_ctrl.busUtilRead                      6.41                       # Data bus utilization in percentage for reads
system.mem_ctrl.busUtilWrite                     0.00                       # Data bus utilization in percentage for writes
system.mem_ctrl.avgRdQLen                        2.00                       # Average read queue length when enqueuing
system.mem_ctrl.avgWrQLen                        0.00                       # Average write queue length when enqueuing
system.mem_ctrl.readRowHits                      5217                       # Number of row buffer hits during reads
system.mem_ctrl.writeRowHits                        0                       # Number of row buffer hits during writes
system.mem_ctrl.readRowHitRate                  80.29                       # Row buffer hit rate for reads
system.mem_ctrl.writeRowHitRate                   nan                       # Row buffer hit rate for writes
system.mem_ctrl.avgGap                      234173.25                       # Average gap between requests
system.mem_ctrl.pageHitRate                     80.29                       # Row buffer hit rate, read and write combined
system.mem_ctrl_0.actEnergy              3896717.454000                       # Energy for activate commands per rank (pJ)
system.mem_ctrl_0.preEnergy              1371611.136000                       # Energy for precharge commands per rank (pJ)
system.mem_ctrl_0.readEnergy             11161391.068800                       # Energy for read commands per rank (pJ)
system.mem_ctrl_0.writeEnergy                       0                       # Energy for write commands per rank (pJ)
system.mem_ctrl_0.refreshEnergy          5027126.580000                       # Energy for refresh commands per rank (pJ)
system.mem_ctrl_0.actBackEnergy          7216618.374000                       # Energy for active background per rank (pJ)
system.mem_ctrl_0.preBackEnergy          280963.267200                       # Energy for precharge background per rank (pJ)
system.mem_ctrl_0.actPowerDownEnergy     5725798.881600                       # Energy for active power-down per rank (pJ)
system.mem_ctrl_0.prePowerDownEnergy     49280.794080                       # Energy for precharge power-down per rank (pJ)
system.mem_ctrl_0.selfRefreshEnergy      418411.408800                       # Energy for self refresh per rank (pJ)
system.mem_ctrl_0.totalEnergy            35147918.964480                       # Total energy per rank (pJ)
system.mem_ctrl_0.averagePower              46.190854                       # Core power per rank (mW)
system.mem_ctrl_0.totalIdleTime             575610024                       # Total Idle time Per DRAM Rank
system.mem_ctrl_0.memoryStateTime::IDLE       1397841                       # Time in different power states
system.mem_ctrl_0.memoryStateTime::REF       23545000                       # Time in different power states
system.mem_ctrl_0.memoryStateTime::SREF      64601435                       # Time in different power states
system.mem_ctrl_0.memoryStateTime::PRE_PDN     24153727                       # Time in different power states
system.mem_ctrl_0.memoryStateTime::ACT      160328867                       # Time in different power states
system.mem_ctrl_0.memoryStateTime::ACT_PDN    486900070                       # Time in different power states
system.pwrStateResidencyTicks::UNDEFINED    760926940                       # Cumulative time (in ticks) in various power states
system.cpu.dtb.walker.pwrStateResidencyTicks::UNDEFINED    760926940                       # Cumulative time (in ticks) in various power states
system.cpu.dtb.rdAccesses                       55399                       # TLB accesses on read requests
system.cpu.dtb.wrAccesses                       16868                       # TLB accesses on write requests
system.cpu.dtb.rdMisses                            70                       # TLB misses on read requests
system.cpu.dtb.wrMisses                            17                       # TLB misses on write requests
system.cpu.apic_clk_domain.clock                10672                       # Clock period in ticks
system.cpu.interrupts.pwrStateResidencyTicks::UNDEFINED    760926940                       # Cumulative time (in ticks) in various power states
system.cpu.itb.walker.pwrStateResidencyTicks::UNDEFINED    760926940                       # Cumulative time (in ticks) in various power states
system.cpu.itb.rdAccesses                           0                       # TLB accesses on read requests
system.cpu.itb.wrAccesses                      238164                       # TLB accesses on write requests
system.cpu.itb.rdMisses                             0                       # TLB misses on read requests
system.cpu.itb.wrMisses                            88                       # TLB misses on write requests
system.cpu.workload.numSyscalls                    32                       # Number of system calls
system.cpu.pwrStateResidencyTicks::ON       760926940                       # Cumulative time (in ticks) in various power states
system.cpu.numCycles                          1140820                       # number of cpu cycles simulated
system.cpu.numWorkItemsStarted                      0                       # number of work items this cpu started
system.cpu.numWorkItemsCompleted                    0                       # number of work items this cpu completed
system.cpu.committedInsts                      180286                       # Number of instructions committed
system.cpu.committedOps                        330274                       # Number of ops (including micro ops) committed
system.cpu.num_int_alu_accesses                326983                       # Number of integer alu accesses
system.cpu.num_fp_alu_accesses                   3447                       # Number of float alu accesses
system.cpu.num_vec_alu_accesses                     0                       # Number of vector alu accesses
system.cpu.num_func_calls                        1354                       # number of times a function call or return occured
system.cpu.num_conditional_control_insts        31515                       # number of instructions that are conditional controls
system.cpu.num_int_insts                       326983                       # number of integer instructions
system.cpu.num_fp_insts                          3447                       # number of float instructions
system.cpu.num_vec_insts                            0                       # number of vector instructions
system.cpu.num_int_register_reads              646209                       # number of times the integer registers were read
system.cpu.num_int_register_writes             277717                       # number of times the integer registers were written
system.cpu.num_fp_register_reads                 5525                       # number of times the floating registers were read
system.cpu.num_fp_register_writes                2660                       # number of times the floating registers were written
system.cpu.num_vec_register_reads                   0                       # number of times the vector registers were read
system.cpu.num_vec_register_writes                  0                       # number of times the vector registers were written
system.cpu.num_cc_register_reads               192826                       # number of times the CC registers were read
system.cpu.num_cc_register_writes              133379                       # number of times the CC registers were written
system.cpu.num_mem_refs                         72258                       # number of memory refs
system.cpu.num_load_insts                       55390                       # Number of load instructions
system.cpu.num_store_insts                      16868                       # Number of store instructions
system.cpu.num_idle_cycles                          0                       # Number of idle cycles
system.cpu.num_busy_cycles                    1140820                       # Number of busy cycles
system.cpu.not_idle_fraction                        1                       # Percentage of non-idle cycles
system.cpu.idle_fraction                            0                       # Percentage of idle cycles
system.cpu.Branches                             34663                       # Number of branches fetched
system.cpu.op_class::No_OpClass                  1287      0.39%      0.39% # Class of executed instruction
system.cpu.op_class::IntAlu                    253310     76.70%     77.09% # Class of executed instruction
system.cpu.op_class::IntMult                       61      0.02%     77.11% # Class of executed instruction
system.cpu.op_class::IntDiv                      1131      0.34%     77.45% # Class of executed instruction
system.cpu.op_class::FloatAdd                    2227      0.67%     78.12% # Class of executed instruction
system.cpu.op_class::FloatCmp                       0      0.00%     78.12% # Class of executed instruction
system.cpu.op_class::FloatCvt                       0      0.00%     78.12% # Class of executed instruction
system.cpu.op_class::FloatMult                      0      0.00%     78.12% # Class of executed instruction
system.cpu.op_class::FloatMultAcc                   0      0.00%     78.12% # Class of executed instruction
system.cpu.op_class::FloatDiv                       0      0.00%     78.12% # Class of executed instruction
system.cpu.op_class::FloatMisc                      0      0.00%     78.12% # Class of executed instruction
system.cpu.op_class::FloatSqrt                      0      0.00%     78.12% # Class of executed instruction
system.cpu.op_class::SimdAdd                        0      0.00%     78.12% # Class of executed instruction
system.cpu.op_class::SimdAddAcc                     0      0.00%     78.12% # Class of executed instruction
system.cpu.op_class::SimdAlu                        0      0.00%     78.12% # Class of executed instruction
system.cpu.op_class::SimdCmp                        0      0.00%     78.12% # Class of executed instruction
system.cpu.op_class::SimdCvt                        0      0.00%     78.12% # Class of executed instruction
system.cpu.op_class::SimdMisc                       0      0.00%     78.12% # Class of executed instruction
system.cpu.op_class::SimdMult                       0      0.00%     78.12% # Class of executed instruction
system.cpu.op_class::SimdMultAcc                    0      0.00%     78.12% # Class of executed instruction
system.cpu.op_class::SimdShift                      0      0.00%     78.12% # Class of executed instruction
system.cpu.op_class::SimdShiftAcc                   0      0.00%     78.12% # Class of executed instruction
system.cpu.op_class::SimdSqrt                       0      0.00%     78.12% # Class of executed instruction
system.cpu.op_class::SimdFloatAdd                   0      0.00%     78.12% # Class of executed instruction
system.cpu.op_class::SimdFloatAlu                   0      0.00%     78.12% # Class of executed instruction
system.cpu.op_class::SimdFloatCmp                   0      0.00%     78.12% # Class of executed instruction
system.cpu.op_class::SimdFloatCvt                   0      0.00%     78.12% # Class of executed instruction
system.cpu.op_class::SimdFloatDiv                   0      0.00%     78.12% # Class of executed instruction
system.cpu.op_class::SimdFloatMisc                  0      0.00%     78.12% # Class of executed instruction
system.cpu.op_class::SimdFloatMult                  0      0.00%     78.12% # Class of executed instruction
system.cpu.op_class::SimdFloatMultAcc               0      0.00%     78.12% # Class of executed instruction
system.cpu.op_class::SimdFloatSqrt                  0      0.00%     78.12% # Class of executed instruction
system.cpu.op_class::MemRead                    54608     16.53%     94.66% # Class of executed instruction
system.cpu.op_class::MemWrite                   16484      4.99%     99.65% # Class of executed instruction
system.cpu.op_class::FloatMemRead                 782      0.24%     99.88% # Class of executed instruction
system.cpu.op_class::FloatMemWrite                384      0.12%    100.00% # Class of executed instruction
system.cpu.op_class::IprAccess                      0      0.00%    100.00% # Class of executed instruction
system.cpu.op_class::InstPrefetch                   0      0.00%    100.00% # Class of executed instruction
system.cpu.op_class::total                     330274                       # Class of executed instruction
system.cpu.dcache.tags.pwrStateResidencyTicks::UNDEFINED    760926940                       # Cumulative time (in ticks) in various power states
system.cpu.dcache.tags.replacements              1685                       # number of replacements
system.cpu.dcache.tags.tagsinuse           808.444672                       # Cycle average of tags in use
system.cpu.dcache.tags.total_refs               69558                       # Total number of references to valid blocks.
system.cpu.dcache.tags.sampled_refs              2709                       # Sample count of references to valid blocks.
system.cpu.dcache.tags.avg_refs             25.676633                       # Average number of references to valid blocks.
system.cpu.dcache.tags.warmup_cycle         504001208                       # Cycle when the warmup percentage was hit.
system.cpu.dcache.tags.occ_blocks::cpu.data   808.444672                       # Average occupied blocks per requestor
system.cpu.dcache.tags.occ_percent::cpu.data     0.789497                       # Average percentage of cache occupancy
system.cpu.dcache.tags.occ_percent::total     0.789497                       # Average percentage of cache occupancy
system.cpu.dcache.tags.occ_task_id_blocks::1024         1024                       # Occupied blocks per task id
system.cpu.dcache.tags.age_task_id_blocks_1024::0           33                       # Occupied blocks per task id
system.cpu.dcache.tags.age_task_id_blocks_1024::1           73                       # Occupied blocks per task id
system.cpu.dcache.tags.age_task_id_blocks_1024::2          918                       # Occupied blocks per task id
system.cpu.dcache.tags.occ_task_id_percent::1024            1                       # Percentage of cache occupancy per task id
system.cpu.dcache.tags.tag_accesses            147243                       # Number of tag accesses
system.cpu.dcache.tags.data_accesses           147243                       # Number of data accesses
system.cpu.dcache.pwrStateResidencyTicks::UNDEFINED    760926940                       # Cumulative time (in ticks) in various power states
system.cpu.dcache.ReadReq_hits::cpu.data        53273                       # number of ReadReq hits
system.cpu.dcache.ReadReq_hits::total           53273                       # number of ReadReq hits
system.cpu.dcache.WriteReq_hits::cpu.data        16285                       # number of WriteReq hits
system.cpu.dcache.WriteReq_hits::total          16285                       # number of WriteReq hits
system.cpu.dcache.demand_hits::cpu.data         69558                       # number of demand (read+write) hits
system.cpu.dcache.demand_hits::total            69558                       # number of demand (read+write) hits
system.cpu.dcache.overall_hits::cpu.data        69558                       # number of overall hits
system.cpu.dcache.overall_hits::total           69558                       # number of overall hits
system.cpu.dcache.ReadReq_misses::cpu.data         2126                       # number of ReadReq misses
system.cpu.dcache.ReadReq_misses::total          2126                       # number of ReadReq misses
system.cpu.dcache.WriteReq_misses::cpu.data          583                       # number of WriteReq misses
system.cpu.dcache.WriteReq_misses::total          583                       # number of WriteReq misses
system.cpu.dcache.demand_misses::cpu.data         2709                       # number of demand (read+write) misses
system.cpu.dcache.demand_misses::total           2709                       # number of demand (read+write) misses
system.cpu.dcache.overall_misses::cpu.data         2709                       # number of overall misses
system.cpu.dcache.overall_misses::total          2709                       # number of overall misses
system.cpu.dcache.ReadReq_miss_latency::cpu.data    203981940                       # number of ReadReq miss cycles
system.cpu.dcache.ReadReq_miss_latency::total    203981940                       # number of ReadReq miss cycles
system.cpu.dcache.WriteReq_miss_latency::cpu.data     57142557                       # number of WriteReq miss cycles
system.cpu.dcache.WriteReq_miss_latency::total     57142557                       # number of WriteReq miss cycles
system.cpu.dcache.demand_miss_latency::cpu.data    261124497                       # number of demand (read+write) miss cycles
system.cpu.dcache.demand_miss_latency::total    261124497                       # number of demand (read+write) miss cycles
system.cpu.dcache.overall_miss_latency::cpu.data    261124497                       # number of overall miss cycles
system.cpu.dcache.overall_miss_latency::total    261124497                       # number of overall miss cycles
system.cpu.dcache.ReadReq_accesses::cpu.data        55399                       # number of ReadReq accesses(hits+misses)
system.cpu.dcache.ReadReq_accesses::total        55399                       # number of ReadReq accesses(hits+misses)
system.cpu.dcache.WriteReq_accesses::cpu.data        16868                       # number of WriteReq accesses(hits+misses)
system.cpu.dcache.WriteReq_accesses::total        16868                       # number of WriteReq accesses(hits+misses)
system.cpu.dcache.demand_accesses::cpu.data        72267                       # number of demand (read+write) accesses
system.cpu.dcache.demand_accesses::total        72267                       # number of demand (read+write) accesses
system.cpu.dcache.overall_accesses::cpu.data        72267                       # number of overall (read+write) accesses
system.cpu.dcache.overall_accesses::total        72267                       # number of overall (read+write) accesses
system.cpu.dcache.ReadReq_miss_rate::cpu.data     0.038376                       # miss rate for ReadReq accesses
system.cpu.dcache.ReadReq_miss_rate::total     0.038376                       # miss rate for ReadReq accesses
system.cpu.dcache.WriteReq_miss_rate::cpu.data     0.034562                       # miss rate for WriteReq accesses
system.cpu.dcache.WriteReq_miss_rate::total     0.034562                       # miss rate for WriteReq accesses
system.cpu.dcache.demand_miss_rate::cpu.data     0.037486                       # miss rate for demand accesses
system.cpu.dcache.demand_miss_rate::total     0.037486                       # miss rate for demand accesses
system.cpu.dcache.overall_miss_rate::cpu.data     0.037486                       # miss rate for overall accesses
system.cpu.dcache.overall_miss_rate::total     0.037486                       # miss rate for overall accesses
system.cpu.dcache.ReadReq_avg_miss_latency::cpu.data 95946.349953                       # average ReadReq miss latency
system.cpu.dcache.ReadReq_avg_miss_latency::total 95946.349953                       # average ReadReq miss latency
system.cpu.dcache.WriteReq_avg_miss_latency::cpu.data 98014.677530                       # average WriteReq miss latency
system.cpu.dcache.WriteReq_avg_miss_latency::total 98014.677530                       # average WriteReq miss latency
system.cpu.dcache.demand_avg_miss_latency::cpu.data 96391.471761                       # average overall miss latency
system.cpu.dcache.demand_avg_miss_latency::total 96391.471761                       # average overall miss latency
system.cpu.dcache.overall_avg_miss_latency::cpu.data 96391.471761                       # average overall miss latency
system.cpu.dcache.overall_avg_miss_latency::total 96391.471761                       # average overall miss latency
system.cpu.dcache.blocked_cycles::no_mshrs            0                       # number of cycles access was blocked
system.cpu.dcache.blocked_cycles::no_targets            0                       # number of cycles access was blocked
system.cpu.dcache.blocked::no_mshrs                 0                       # number of cycles access was blocked
system.cpu.dcache.blocked::no_targets               0                       # number of cycles access was blocked
system.cpu.dcache.avg_blocked_cycles::no_mshrs          nan                       # average number of cycles each access was blocked
system.cpu.dcache.avg_blocked_cycles::no_targets          nan                       # average number of cycles each access was blocked
system.cpu.dcache.writebacks::writebacks          581                       # number of writebacks
system.cpu.dcache.writebacks::total               581                       # number of writebacks
system.cpu.dcache.ReadReq_mshr_misses::cpu.data         2126                       # number of ReadReq MSHR misses
system.cpu.dcache.ReadReq_mshr_misses::total         2126                       # number of ReadReq MSHR misses
system.cpu.dcache.WriteReq_mshr_misses::cpu.data          583                       # number of WriteReq MSHR misses
system.cpu.dcache.WriteReq_mshr_misses::total          583                       # number of WriteReq MSHR misses
system.cpu.dcache.demand_mshr_misses::cpu.data         2709                       # number of demand (read+write) MSHR misses
system.cpu.dcache.demand_mshr_misses::total         2709                       # number of demand (read+write) MSHR misses
system.cpu.dcache.overall_mshr_misses::cpu.data         2709                       # number of overall MSHR misses
system.cpu.dcache.overall_mshr_misses::total         2709                       # number of overall MSHR misses
system.cpu.dcache.ReadReq_mshr_miss_latency::cpu.data    201145856                       # number of ReadReq MSHR miss cycles
system.cpu.dcache.ReadReq_mshr_miss_latency::total    201145856                       # number of ReadReq MSHR miss cycles
system.cpu.dcache.WriteReq_mshr_miss_latency::cpu.data     56364835                       # number of WriteReq MSHR miss cycles
system.cpu.dcache.WriteReq_mshr_miss_latency::total     56364835                       # number of WriteReq MSHR miss cycles
system.cpu.dcache.demand_mshr_miss_latency::cpu.data    257510691                       # number of demand (read+write) MSHR miss cycles
system.cpu.dcache.demand_mshr_miss_latency::total    257510691                       # number of demand (read+write) MSHR miss cycles
system.cpu.dcache.overall_mshr_miss_latency::cpu.data    257510691                       # number of overall MSHR miss cycles
system.cpu.dcache.overall_mshr_miss_latency::total    257510691                       # number of overall MSHR miss cycles
system.cpu.dcache.ReadReq_mshr_miss_rate::cpu.data     0.038376                       # mshr miss rate for ReadReq accesses
system.cpu.dcache.ReadReq_mshr_miss_rate::total     0.038376                       # mshr miss rate for ReadReq accesses
system.cpu.dcache.WriteReq_mshr_miss_rate::cpu.data     0.034562                       # mshr miss rate for WriteReq accesses
system.cpu.dcache.WriteReq_mshr_miss_rate::total     0.034562                       # mshr miss rate for WriteReq accesses
system.cpu.dcache.demand_mshr_miss_rate::cpu.data     0.037486                       # mshr miss rate for demand accesses
system.cpu.dcache.demand_mshr_miss_rate::total     0.037486                       # mshr miss rate for demand accesses
system.cpu.dcache.overall_mshr_miss_rate::cpu.data     0.037486                       # mshr miss rate for overall accesses
system.cpu.dcache.overall_mshr_miss_rate::total     0.037486                       # mshr miss rate for overall accesses
system.cpu.dcache.ReadReq_avg_mshr_miss_latency::cpu.data 94612.349953                       # average ReadReq mshr miss latency
system.cpu.dcache.ReadReq_avg_mshr_miss_latency::total 94612.349953                       # average ReadReq mshr miss latency
system.cpu.dcache.WriteReq_avg_mshr_miss_latency::cpu.data 96680.677530                       # average WriteReq mshr miss latency
system.cpu.dcache.WriteReq_avg_mshr_miss_latency::total 96680.677530                       # average WriteReq mshr miss latency
system.cpu.dcache.demand_avg_mshr_miss_latency::cpu.data 95057.471761                       # average overall mshr miss latency
system.cpu.dcache.demand_avg_mshr_miss_latency::total 95057.471761                       # average overall mshr miss latency
system.cpu.dcache.overall_avg_mshr_miss_latency::cpu.data 95057.471761                       # average overall mshr miss latency
system.cpu.dcache.overall_avg_mshr_miss_latency::total 95057.471761                       # average overall mshr miss latency
system.cpu.icache.tags.pwrStateResidencyTicks::UNDEFINED    760926940                       # Cumulative time (in ticks) in various power states
system.cpu.icache.tags.replacements               395                       # number of replacements
system.cpu.icache.tags.tagsinuse           396.626308                       # Cycle average of tags in use
system.cpu.icache.tags.total_refs              237295                       # Total number of references to valid blocks.
system.cpu.icache.tags.sampled_refs               869                       # Sample count of references to valid blocks.
system.cpu.icache.tags.avg_refs            273.066743                       # Average number of references to valid blocks.
system.cpu.icache.tags.warmup_cycle                 0                       # Cycle when the warmup percentage was hit.
system.cpu.icache.tags.occ_blocks::cpu.inst   396.626308                       # Average occupied blocks per requestor
system.cpu.icache.tags.occ_percent::cpu.inst     0.774661                       # Average percentage of cache occupancy
system.cpu.icache.tags.occ_percent::total     0.774661                       # Average percentage of cache occupancy
system.cpu.icache.tags.occ_task_id_blocks::1024          474                       # Occupied blocks per task id
system.cpu.icache.tags.age_task_id_blocks_1024::0           67                       # Occupied blocks per task id
system.cpu.icache.tags.age_task_id_blocks_1024::1           88                       # Occupied blocks per task id
system.cpu.icache.tags.age_task_id_blocks_1024::2          319                       # Occupied blocks per task id
system.cpu.icache.tags.occ_task_id_percent::1024     0.925781                       # Percentage of cache occupancy per task id
system.cpu.icache.tags.tag_accesses            477197                       # Number of tag accesses
system.cpu.icache.tags.data_accesses           477197                       # Number of data accesses
system.cpu.icache.pwrStateResidencyTicks::UNDEFINED    760926940                       # Cumulative time (in ticks) in various power states
system.cpu.icache.ReadReq_hits::cpu.inst       237295                       # number of ReadReq hits
system.cpu.icache.ReadReq_hits::total          237295                       # number of ReadReq hits
system.cpu.icache.demand_hits::cpu.inst        237295                       # number of demand (read+write) hits
system.cpu.icache.demand_hits::total           237295                       # number of demand (read+write) hits
system.cpu.icache.overall_hits::cpu.inst       237295                       # number of overall hits
system.cpu.icache.overall_hits::total          237295                       # number of overall hits
system.cpu.icache.ReadReq_misses::cpu.inst          869                       # number of ReadReq misses
system.cpu.icache.ReadReq_misses::total           869                       # number of ReadReq misses
system.cpu.icache.demand_misses::cpu.inst          869                       # number of demand (read+write) misses
system.cpu.icache.demand_misses::total            869                       # number of demand (read+write) misses
system.cpu.icache.overall_misses::cpu.inst          869                       # number of overall misses
system.cpu.icache.overall_misses::total           869                       # number of overall misses
system.cpu.icache.ReadReq_miss_latency::cpu.inst     90470546                       # number of ReadReq miss cycles
system.cpu.icache.ReadReq_miss_latency::total     90470546                       # number of ReadReq miss cycles
system.cpu.icache.demand_miss_latency::cpu.inst     90470546                       # number of demand (read+write) miss cycles
system.cpu.icache.demand_miss_latency::total     90470546                       # number of demand (read+write) miss cycles
system.cpu.icache.overall_miss_latency::cpu.inst     90470546                       # number of overall miss cycles
system.cpu.icache.overall_miss_latency::total     90470546                       # number of overall miss cycles
system.cpu.icache.ReadReq_accesses::cpu.inst       238164                       # number of ReadReq accesses(hits+misses)
system.cpu.icache.ReadReq_accesses::total       238164                       # number of ReadReq accesses(hits+misses)
system.cpu.icache.demand_accesses::cpu.inst       238164                       # number of demand (read+write) accesses
system.cpu.icache.demand_accesses::total       238164                       # number of demand (read+write) accesses
system.cpu.icache.overall_accesses::cpu.inst       238164                       # number of overall (read+write) accesses
system.cpu.icache.overall_accesses::total       238164                       # number of overall (read+write) accesses
system.cpu.icache.ReadReq_miss_rate::cpu.inst     0.003649                       # miss rate for ReadReq accesses
system.cpu.icache.ReadReq_miss_rate::total     0.003649                       # miss rate for ReadReq accesses
system.cpu.icache.demand_miss_rate::cpu.inst     0.003649                       # miss rate for demand accesses
system.cpu.icache.demand_miss_rate::total     0.003649                       # miss rate for demand accesses
system.cpu.icache.overall_miss_rate::cpu.inst     0.003649                       # miss rate for overall accesses
system.cpu.icache.overall_miss_rate::total     0.003649                       # miss rate for overall accesses
system.cpu.icache.ReadReq_avg_miss_latency::cpu.inst 104108.798619                       # average ReadReq miss latency
system.cpu.icache.ReadReq_avg_miss_latency::total 104108.798619                       # average ReadReq miss latency
system.cpu.icache.demand_avg_miss_latency::cpu.inst 104108.798619                       # average overall miss latency
system.cpu.icache.demand_avg_miss_latency::total 104108.798619                       # average overall miss latency
system.cpu.icache.overall_avg_miss_latency::cpu.inst 104108.798619                       # average overall miss latency
system.cpu.icache.overall_avg_miss_latency::total 104108.798619                       # average overall miss latency
system.cpu.icache.blocked_cycles::no_mshrs            0                       # number of cycles access was blocked
system.cpu.icache.blocked_cycles::no_targets            0                       # number of cycles access was blocked
system.cpu.icache.blocked::no_mshrs                 0                       # number of cycles access was blocked
system.cpu.icache.blocked::no_targets               0                       # number of cycles access was blocked
system.cpu.icache.avg_blocked_cycles::no_mshrs          nan                       # average number of cycles each access was blocked
system.cpu.icache.avg_blocked_cycles::no_targets          nan                       # average number of cycles each access was blocked
system.cpu.icache.ReadReq_mshr_misses::cpu.inst          869                       # number of ReadReq MSHR misses
system.cpu.icache.ReadReq_mshr_misses::total          869                       # number of ReadReq MSHR misses
system.cpu.icache.demand_mshr_misses::cpu.inst          869                       # number of demand (read+write) MSHR misses
system.cpu.icache.demand_mshr_misses::total          869                       # number of demand (read+write) MSHR misses
system.cpu.icache.overall_mshr_misses::cpu.inst          869                       # number of overall MSHR misses
system.cpu.icache.overall_mshr_misses::total          869                       # number of overall MSHR misses
system.cpu.icache.ReadReq_mshr_miss_latency::cpu.inst     89311300                       # number of ReadReq MSHR miss cycles
system.cpu.icache.ReadReq_mshr_miss_latency::total     89311300                       # number of ReadReq MSHR miss cycles
system.cpu.icache.demand_mshr_miss_latency::cpu.inst     89311300                       # number of demand (read+write) MSHR miss cycles
system.cpu.icache.demand_mshr_miss_latency::total     89311300                       # number of demand (read+write) MSHR miss cycles
system.cpu.icache.overall_mshr_miss_latency::cpu.inst     89311300                       # number of overall MSHR miss cycles
system.cpu.icache.overall_mshr_miss_latency::total     89311300                       # number of overall MSHR miss cycles
system.cpu.icache.ReadReq_mshr_miss_rate::cpu.inst     0.003649                       # mshr miss rate for ReadReq accesses
system.cpu.icache.ReadReq_mshr_miss_rate::total     0.003649                       # mshr miss rate for ReadReq accesses
system.cpu.icache.demand_mshr_miss_rate::cpu.inst     0.003649                       # mshr miss rate for demand accesses
system.cpu.icache.demand_mshr_miss_rate::total     0.003649                       # mshr miss rate for demand accesses
system.cpu.icache.overall_mshr_miss_rate::cpu.inst     0.003649                       # mshr miss rate for overall accesses
system.cpu.icache.overall_mshr_miss_rate::total     0.003649                       # mshr miss rate for overall accesses
system.cpu.icache.ReadReq_avg_mshr_miss_latency::cpu.inst 102774.798619                       # average ReadReq mshr miss latency
system.cpu.icache.ReadReq_avg_mshr_miss_latency::total 102774.798619                       # average ReadReq mshr miss latency
system.cpu.icache.demand_avg_mshr_miss_latency::cpu.inst 102774.798619                       # average overall mshr miss latency
system.cpu.icache.demand_avg_mshr_miss_latency::total 102774.798619                       # average overall mshr miss latency
system.cpu.icache.overall_avg_mshr_miss_latency::cpu.inst 102774.798619                       # average overall mshr miss latency
system.cpu.icache.overall_avg_mshr_miss_latency::total 102774.798619                       # average overall mshr miss latency
system.l2bus.snoop_filter.tot_requests           5658                       # Total number of requests made to the snoop filter.
system.l2bus.snoop_filter.hit_single_requests         2081                       # Number of requests hitting in the snoop filter with a single holder of the requested data.
system.l2bus.snoop_filter.hit_multi_requests            2                       # Number of requests hitting in the snoop filter with multiple (>1) holders of the requested data.
system.l2bus.snoop_filter.tot_snoops                0                       # Total number of snoops made to the snoop filter.
system.l2bus.snoop_filter.hit_single_snoops            0                       # Number of snoops hitting in the snoop filter with a single holder of the requested data.
system.l2bus.snoop_filter.hit_multi_snoops            0                       # Number of snoops hitting in the snoop filter with multiple (>1) holders of the requested data.
system.l2bus.pwrStateResidencyTicks::UNDEFINED    760926940                       # Cumulative time (in ticks) in various power states
system.l2bus.trans_dist::ReadResp                2995                       # Transaction distribution
system.l2bus.trans_dist::WritebackDirty           581                       # Transaction distribution
system.l2bus.trans_dist::CleanEvict              1499                       # Transaction distribution
system.l2bus.trans_dist::ReadExReq                583                       # Transaction distribution
system.l2bus.trans_dist::ReadExResp               583                       # Transaction distribution
system.l2bus.trans_dist::ReadSharedReq           2995                       # Transaction distribution
system.l2bus.pkt_count_system.cpu.icache.mem_side::system.l2cache.cpu_side         2133                       # Packet count per connected master and slave (bytes)
system.l2bus.pkt_count_system.cpu.dcache.mem_side::system.l2cache.cpu_side         7103                       # Packet count per connected master and slave (bytes)
system.l2bus.pkt_count::total                    9236                       # Packet count per connected master and slave (bytes)
system.l2bus.pkt_size_system.cpu.icache.mem_side::system.l2cache.cpu_side        55616                       # Cumulative packet size per connected master and slave (bytes)
system.l2bus.pkt_size_system.cpu.dcache.mem_side::system.l2cache.cpu_side       210560                       # Cumulative packet size per connected master and slave (bytes)
system.l2bus.pkt_size::total                   266176                       # Cumulative packet size per connected master and slave (bytes)
system.l2bus.snoops                                 0                       # Total snoops (count)
system.l2bus.snoopTraffic                           0                       # Total snoop traffic (bytes)
system.l2bus.snoop_fanout::samples               3578                       # Request fanout histogram
system.l2bus.snoop_fanout::mean              0.000838                       # Request fanout histogram
system.l2bus.snoop_fanout::stdev             0.028948                       # Request fanout histogram
system.l2bus.snoop_fanout::underflows               0      0.00%      0.00% # Request fanout histogram
system.l2bus.snoop_fanout::0                     3575     99.92%     99.92% # Request fanout histogram
system.l2bus.snoop_fanout::1                        3      0.08%    100.00% # Request fanout histogram
system.l2bus.snoop_fanout::2                        0      0.00%    100.00% # Request fanout histogram
system.l2bus.snoop_fanout::overflows                0      0.00%    100.00% # Request fanout histogram
system.l2bus.snoop_fanout::min_value                0                       # Request fanout histogram
system.l2bus.snoop_fanout::max_value                1                       # Request fanout histogram
system.l2bus.snoop_fanout::total                 3578                       # Request fanout histogram
system.l2bus.reqLayer0.occupancy              4548940                       # Layer occupancy (ticks)
system.l2bus.reqLayer0.utilization                0.6                       # Layer utilization (%)
system.l2bus.respLayer0.occupancy             1738869                       # Layer occupancy (ticks)
system.l2bus.respLayer0.utilization               0.2                       # Layer utilization (%)
system.l2bus.respLayer1.occupancy             5420709                       # Layer occupancy (ticks)
system.l2bus.respLayer1.utilization               0.7                       # Layer utilization (%)
system.l2cache.tags.pwrStateResidencyTicks::UNDEFINED    760926940                       # Cumulative time (in ticks) in various power states
system.l2cache.tags.replacements                    0                       # number of replacements
system.l2cache.tags.tagsinuse             1937.161468                       # Cycle average of tags in use
system.l2cache.tags.total_refs                   2407                       # Total number of references to valid blocks.
system.l2cache.tags.sampled_refs                 3249                       # Sample count of references to valid blocks.
system.l2cache.tags.avg_refs                 0.740843                       # Average number of references to valid blocks.
system.l2cache.tags.warmup_cycle                    0                       # Cycle when the warmup percentage was hit.
system.l2cache.tags.occ_blocks::cpu.inst   528.821346                       # Average occupied blocks per requestor
system.l2cache.tags.occ_blocks::cpu.data  1408.340122                       # Average occupied blocks per requestor
system.l2cache.tags.occ_percent::cpu.inst     0.008069                       # Average percentage of cache occupancy
system.l2cache.tags.occ_percent::cpu.data     0.021490                       # Average percentage of cache occupancy
system.l2cache.tags.occ_percent::total       0.029559                       # Average percentage of cache occupancy
system.l2cache.tags.occ_task_id_blocks::1024         3249                       # Occupied blocks per task id
system.l2cache.tags.age_task_id_blocks_1024::0           64                       # Occupied blocks per task id
system.l2cache.tags.age_task_id_blocks_1024::1          106                       # Occupied blocks per task id
system.l2cache.tags.age_task_id_blocks_1024::2         3079                       # Occupied blocks per task id
system.l2cache.tags.occ_task_id_percent::1024     0.049576                       # Percentage of cache occupancy per task id
system.l2cache.tags.tag_accesses                48497                       # Number of tag accesses
system.l2cache.tags.data_accesses               48497                       # Number of data accesses
system.l2cache.pwrStateResidencyTicks::UNDEFINED    760926940                       # Cumulative time (in ticks) in various power states
system.l2cache.WritebackDirty_hits::writebacks          581                       # number of WritebackDirty hits
system.l2cache.WritebackDirty_hits::total          581                       # number of WritebackDirty hits
system.l2cache.ReadExReq_hits::cpu.data            48                       # number of ReadExReq hits
system.l2cache.ReadExReq_hits::total               48                       # number of ReadExReq hits
system.l2cache.ReadSharedReq_hits::cpu.inst           28                       # number of ReadSharedReq hits
system.l2cache.ReadSharedReq_hits::cpu.data          253                       # number of ReadSharedReq hits
system.l2cache.ReadSharedReq_hits::total          281                       # number of ReadSharedReq hits
system.l2cache.demand_hits::cpu.inst               28                       # number of demand (read+write) hits
system.l2cache.demand_hits::cpu.data              301                       # number of demand (read+write) hits
system.l2cache.demand_hits::total                 329                       # number of demand (read+write) hits
system.l2cache.overall_hits::cpu.inst              28                       # number of overall hits
system.l2cache.overall_hits::cpu.data             301                       # number of overall hits
system.l2cache.overall_hits::total                329                       # number of overall hits
system.l2cache.ReadExReq_misses::cpu.data          535                       # number of ReadExReq misses
system.l2cache.ReadExReq_misses::total            535                       # number of ReadExReq misses
system.l2cache.ReadSharedReq_misses::cpu.inst          841                       # number of ReadSharedReq misses
system.l2cache.ReadSharedReq_misses::cpu.data         1873                       # number of ReadSharedReq misses
system.l2cache.ReadSharedReq_misses::total         2714                       # number of ReadSharedReq misses
system.l2cache.demand_misses::cpu.inst            841                       # number of demand (read+write) misses
system.l2cache.demand_misses::cpu.data           2408                       # number of demand (read+write) misses
system.l2cache.demand_misses::total              3249                       # number of demand (read+write) misses
system.l2cache.overall_misses::cpu.inst           841                       # number of overall misses
system.l2cache.overall_misses::cpu.data          2408                       # number of overall misses
system.l2cache.overall_misses::total             3249                       # number of overall misses
system.l2cache.ReadExReq_miss_latency::cpu.data     54525916                       # number of ReadExReq miss cycles
system.l2cache.ReadExReq_miss_latency::total     54525916                       # number of ReadExReq miss cycles
system.l2cache.ReadSharedReq_miss_latency::cpu.inst     87177567                       # number of ReadSharedReq miss cycles
system.l2cache.ReadSharedReq_miss_latency::cpu.data    193346625                       # number of ReadSharedReq miss cycles
system.l2cache.ReadSharedReq_miss_latency::total    280524192                       # number of ReadSharedReq miss cycles
system.l2cache.demand_miss_latency::cpu.inst     87177567                       # number of demand (read+write) miss cycles
system.l2cache.demand_miss_latency::cpu.data    247872541                       # number of demand (read+write) miss cycles
system.l2cache.demand_miss_latency::total    335050108                       # number of demand (read+write) miss cycles
system.l2cache.overall_miss_latency::cpu.inst     87177567                       # number of overall miss cycles
system.l2cache.overall_miss_latency::cpu.data    247872541                       # number of overall miss cycles
system.l2cache.overall_miss_latency::total    335050108                       # number of overall miss cycles
system.l2cache.WritebackDirty_accesses::writebacks          581                       # number of WritebackDirty accesses(hits+misses)
system.l2cache.WritebackDirty_accesses::total          581                       # number of WritebackDirty accesses(hits+misses)
system.l2cache.ReadExReq_accesses::cpu.data          583                       # number of ReadExReq accesses(hits+misses)
system.l2cache.ReadExReq_accesses::total          583                       # number of ReadExReq accesses(hits+misses)
system.l2cache.ReadSharedReq_accesses::cpu.inst          869                       # number of ReadSharedReq accesses(hits+misses)
system.l2cache.ReadSharedReq_accesses::cpu.data         2126                       # number of ReadSharedReq accesses(hits+misses)
system.l2cache.ReadSharedReq_accesses::total         2995                       # number of ReadSharedReq accesses(hits+misses)
system.l2cache.demand_accesses::cpu.inst          869                       # number of demand (read+write) accesses
system.l2cache.demand_accesses::cpu.data         2709                       # number of demand (read+write) accesses
system.l2cache.demand_accesses::total            3578                       # number of demand (read+write) accesses
system.l2cache.overall_accesses::cpu.inst          869                       # number of overall (read+write) accesses
system.l2cache.overall_accesses::cpu.data         2709                       # number of overall (read+write) accesses
system.l2cache.overall_accesses::total           3578                       # number of overall (read+write) accesses
system.l2cache.ReadExReq_miss_rate::cpu.data     0.917667                       # miss rate for ReadExReq accesses
system.l2cache.ReadExReq_miss_rate::total     0.917667                       # miss rate for ReadExReq accesses
system.l2cache.ReadSharedReq_miss_rate::cpu.inst     0.967779                       # miss rate for ReadSharedReq accesses
system.l2cache.ReadSharedReq_miss_rate::cpu.data     0.880997                       # miss rate for ReadSharedReq accesses
system.l2cache.ReadSharedReq_miss_rate::total     0.906177                       # miss rate for ReadSharedReq accesses
system.l2cache.demand_miss_rate::cpu.inst     0.967779                       # miss rate for demand accesses
system.l2cache.demand_miss_rate::cpu.data     0.888889                       # miss rate for demand accesses
system.l2cache.demand_miss_rate::total       0.908049                       # miss rate for demand accesses
system.l2cache.overall_miss_rate::cpu.inst     0.967779                       # miss rate for overall accesses
system.l2cache.overall_miss_rate::cpu.data     0.888889                       # miss rate for overall accesses
system.l2cache.overall_miss_rate::total      0.908049                       # miss rate for overall accesses
system.l2cache.ReadExReq_avg_miss_latency::cpu.data 101917.600000                       # average ReadExReq miss latency
system.l2cache.ReadExReq_avg_miss_latency::total 101917.600000                       # average ReadExReq miss latency
system.l2cache.ReadSharedReq_avg_miss_latency::cpu.inst 103659.413793                       # average ReadSharedReq miss latency
system.l2cache.ReadSharedReq_avg_miss_latency::cpu.data 103228.310198                       # average ReadSharedReq miss latency
system.l2cache.ReadSharedReq_avg_miss_latency::total 103361.898305                       # average ReadSharedReq miss latency
system.l2cache.demand_avg_miss_latency::cpu.inst 103659.413793                       # average overall miss latency
system.l2cache.demand_avg_miss_latency::cpu.data 102937.101744                       # average overall miss latency
system.l2cache.demand_avg_miss_latency::total 103124.071407                       # average overall miss latency
system.l2cache.overall_avg_miss_latency::cpu.inst 103659.413793                       # average overall miss latency
system.l2cache.overall_avg_miss_latency::cpu.data 102937.101744                       # average overall miss latency
system.l2cache.overall_avg_miss_latency::total 103124.071407                       # average overall miss latency
system.l2cache.blocked_cycles::no_mshrs             0                       # number of cycles access was blocked
system.l2cache.blocked_cycles::no_targets            0                       # number of cycles access was blocked
system.l2cache.blocked::no_mshrs                    0                       # number of cycles access was blocked
system.l2cache.blocked::no_targets                  0                       # number of cycles access was blocked
system.l2cache.avg_blocked_cycles::no_mshrs          nan                       # average number of cycles each access was blocked
system.l2cache.avg_blocked_cycles::no_targets          nan                       # average number of cycles each access was blocked
system.l2cache.ReadExReq_mshr_misses::cpu.data          535                       # number of ReadExReq MSHR misses
system.l2cache.ReadExReq_mshr_misses::total          535                       # number of ReadExReq MSHR misses
system.l2cache.ReadSharedReq_mshr_misses::cpu.inst          841                       # number of ReadSharedReq MSHR misses
system.l2cache.ReadSharedReq_mshr_misses::cpu.data         1873                       # number of ReadSharedReq MSHR misses
system.l2cache.ReadSharedReq_mshr_misses::total         2714                       # number of ReadSharedReq MSHR misses
system.l2cache.demand_mshr_misses::cpu.inst          841                       # number of demand (read+write) MSHR misses
system.l2cache.demand_mshr_misses::cpu.data         2408                       # number of demand (read+write) MSHR misses
system.l2cache.demand_mshr_misses::total         3249                       # number of demand (read+write) MSHR misses
system.l2cache.overall_mshr_misses::cpu.inst          841                       # number of overall MSHR misses
system.l2cache.overall_mshr_misses::cpu.data         2408                       # number of overall MSHR misses
system.l2cache.overall_mshr_misses::total         3249                       # number of overall MSHR misses
system.l2cache.ReadExReq_mshr_miss_latency::cpu.data     47389016                       # number of ReadExReq MSHR miss cycles
system.l2cache.ReadExReq_mshr_miss_latency::total     47389016                       # number of ReadExReq MSHR miss cycles
system.l2cache.ReadSharedReq_mshr_miss_latency::cpu.inst     75958627                       # number of ReadSharedReq MSHR miss cycles
system.l2cache.ReadSharedReq_mshr_miss_latency::cpu.data    168360805                       # number of ReadSharedReq MSHR miss cycles
system.l2cache.ReadSharedReq_mshr_miss_latency::total    244319432                       # number of ReadSharedReq MSHR miss cycles
system.l2cache.demand_mshr_miss_latency::cpu.inst     75958627                       # number of demand (read+write) MSHR miss cycles
system.l2cache.demand_mshr_miss_latency::cpu.data    215749821                       # number of demand (read+write) MSHR miss cycles
system.l2cache.demand_mshr_miss_latency::total    291708448                       # number of demand (read+write) MSHR miss cycles
system.l2cache.overall_mshr_miss_latency::cpu.inst     75958627                       # number of overall MSHR miss cycles
system.l2cache.overall_mshr_miss_latency::cpu.data    215749821                       # number of overall MSHR miss cycles
system.l2cache.overall_mshr_miss_latency::total    291708448                       # number of overall MSHR miss cycles
system.l2cache.ReadExReq_mshr_miss_rate::cpu.data     0.917667                       # mshr miss rate for ReadExReq accesses
system.l2cache.ReadExReq_mshr_miss_rate::total     0.917667                       # mshr miss rate for ReadExReq accesses
system.l2cache.ReadSharedReq_mshr_miss_rate::cpu.inst     0.967779                       # mshr miss rate for ReadSharedReq accesses
system.l2cache.ReadSharedReq_mshr_miss_rate::cpu.data     0.880997                       # mshr miss rate for ReadSharedReq accesses
system.l2cache.ReadSharedReq_mshr_miss_rate::total     0.906177                       # mshr miss rate for ReadSharedReq accesses
system.l2cache.demand_mshr_miss_rate::cpu.inst     0.967779                       # mshr miss rate for demand accesses
system.l2cache.demand_mshr_miss_rate::cpu.data     0.888889                       # mshr miss rate for demand accesses
system.l2cache.demand_mshr_miss_rate::total     0.908049                       # mshr miss rate for demand accesses
system.l2cache.overall_mshr_miss_rate::cpu.inst     0.967779                       # mshr miss rate for overall accesses
system.l2cache.overall_mshr_miss_rate::cpu.data     0.888889                       # mshr miss rate for overall accesses
system.l2cache.overall_mshr_miss_rate::total     0.908049                       # mshr miss rate for overall accesses
system.l2cache.ReadExReq_avg_mshr_miss_latency::cpu.data 88577.600000                       # average ReadExReq mshr miss latency
system.l2cache.ReadExReq_avg_mshr_miss_latency::total 88577.600000                       # average ReadExReq mshr miss latency
system.l2cache.ReadSharedReq_avg_mshr_miss_latency::cpu.inst 90319.413793                       # average ReadSharedReq mshr miss latency
system.l2cache.ReadSharedReq_avg_mshr_miss_latency::cpu.data 89888.310198                       # average ReadSharedReq mshr miss latency
system.l2cache.ReadSharedReq_avg_mshr_miss_latency::total 90021.898305                       # average ReadSharedReq mshr miss latency
system.l2cache.demand_avg_mshr_miss_latency::cpu.inst 90319.413793                       # average overall mshr miss latency
system.l2cache.demand_avg_mshr_miss_latency::cpu.data 89597.101744                       # average overall mshr miss latency
system.l2cache.demand_avg_mshr_miss_latency::total 89784.071407                       # average overall mshr miss latency
system.l2cache.overall_avg_mshr_miss_latency::cpu.inst 90319.413793                       # average overall mshr miss latency
system.l2cache.overall_avg_mshr_miss_latency::cpu.data 89597.101744                       # average overall mshr miss latency
system.l2cache.overall_avg_mshr_miss_latency::total 89784.071407                       # average overall mshr miss latency
system.membus.snoop_filter.tot_requests          3249                       # Total number of requests made to the snoop filter.
system.membus.snoop_filter.hit_single_requests            0                       # Number of requests hitting in the snoop filter with a single holder of the requested data.
system.membus.snoop_filter.hit_multi_requests            0                       # Number of requests hitting in the snoop filter with multiple (>1) holders of the requested data.
system.membus.snoop_filter.tot_snoops               0                       # Total number of snoops made to the snoop filter.
system.membus.snoop_filter.hit_single_snoops            0                       # Number of snoops hitting in the snoop filter with a single holder of the requested data.
system.membus.snoop_filter.hit_multi_snoops            0                       # Number of snoops hitting in the snoop filter with multiple (>1) holders of the requested data.
system.membus.pwrStateResidencyTicks::UNDEFINED    760926940                       # Cumulative time (in ticks) in various power states
system.membus.trans_dist::ReadResp               2714                       # Transaction distribution
system.membus.trans_dist::ReadExReq               535                       # Transaction distribution
system.membus.trans_dist::ReadExResp              535                       # Transaction distribution
system.membus.trans_dist::ReadSharedReq          2714                       # Transaction distribution
system.membus.pkt_count_system.l2cache.mem_side::system.mem_ctrl.port         6498                       # Packet count per connected master and slave (bytes)
system.membus.pkt_count_system.l2cache.mem_side::total         6498                       # Packet count per connected master and slave (bytes)
system.membus.pkt_count::total                   6498                       # Packet count per connected master and slave (bytes)
system.membus.pkt_size_system.l2cache.mem_side::system.mem_ctrl.port       207936                       # Cumulative packet size per connected master and slave (bytes)
system.membus.pkt_size_system.l2cache.mem_side::total       207936                       # Cumulative packet size per connected master and slave (bytes)
system.membus.pkt_size::total                  207936                       # Cumulative packet size per connected master and slave (bytes)
system.membus.snoops                                0                       # Total snoops (count)
system.membus.snoopTraffic                          0                       # Total snoop traffic (bytes)
system.membus.snoop_fanout::samples              3249                       # Request fanout histogram
system.membus.snoop_fanout::mean                    0                       # Request fanout histogram
system.membus.snoop_fanout::stdev                   0                       # Request fanout histogram
system.membus.snoop_fanout::underflows              0      0.00%      0.00% # Request fanout histogram
system.membus.snoop_fanout::0                    3249    100.00%    100.00% # Request fanout histogram
system.membus.snoop_fanout::1                       0      0.00%    100.00% # Request fanout histogram
system.membus.snoop_fanout::overflows               0      0.00%    100.00% # Request fanout histogram
system.membus.snoop_fanout::min_value               0                       # Request fanout histogram
system.membus.snoop_fanout::max_value               0                       # Request fanout histogram
system.membus.snoop_fanout::total                3249                       # Request fanout histogram
system.membus.reqLayer2.occupancy             2167083                       # Layer occupancy (ticks)
system.membus.reqLayer2.utilization               0.3                       # Layer utilization (%)
system.membus.respLayer0.occupancy           12307034                       # Layer occupancy (ticks)
system.membus.respLayer0.utilization              1.6                       # Layer utilization (%)

---------- End Simulation Statistics   ----------
