
---------- Begin Simulation Statistics ----------
sim_seconds                                  0.014419                       # Number of seconds simulated
sim_ticks                                 14418970800                       # Number of ticks simulated
final_tick                                14418970800                       # Number of ticks from beginning of simulation (restored from checkpoints and never reset)
sim_freq                                 1000000000000                       # Frequency of simulated ticks
host_inst_rate                                  50406                       # Simulator instruction rate (inst/s)
host_op_rate                                    88761                       # Simulator op (including micro ops) rate (op/s)
host_tick_rate                             1280994878                       # Simulator tick rate (ticks/s)
host_mem_usage                                 668416                       # Number of bytes of host memory used
host_seconds                                    11.26                       # Real time elapsed on the host
sim_insts                                      567373                       # Number of instructions simulated
sim_ops                                        999102                       # Number of ops (including micro ops) simulated
system.clk_domain.voltage_domain.voltage            1                       # Voltage in Volts
system.clk_domain.clock                           400                       # Clock period in ticks
system.mem_ctrl.pwrStateResidencyTicks::UNDEFINED  14418970800                       # Cumulative time (in ticks) in various power states
system.mem_ctrl.bytes_read::cpu.inst         13890624                       # Number of bytes read from this memory
system.mem_ctrl.bytes_read::cpu.data          1349375                       # Number of bytes read from this memory
system.mem_ctrl.bytes_read::total            15239999                       # Number of bytes read from this memory
system.mem_ctrl.bytes_inst_read::cpu.inst     13890624                       # Number of instructions bytes read from this memory
system.mem_ctrl.bytes_inst_read::total       13890624                       # Number of instructions bytes read from this memory
system.mem_ctrl.bytes_written::cpu.data        343939                       # Number of bytes written to this memory
system.mem_ctrl.bytes_written::total           343939                       # Number of bytes written to this memory
system.mem_ctrl.num_reads::cpu.inst            217041                       # Number of read requests responded to by this memory
system.mem_ctrl.num_reads::cpu.data            281371                       # Number of read requests responded to by this memory
system.mem_ctrl.num_reads::total               498412                       # Number of read requests responded to by this memory
system.mem_ctrl.num_writes::cpu.data            76154                       # Number of write requests responded to by this memory
system.mem_ctrl.num_writes::total               76154                       # Number of write requests responded to by this memory
system.mem_ctrl.bw_read::cpu.inst           963357523                       # Total read bandwidth from this memory (bytes/s)
system.mem_ctrl.bw_read::cpu.data            93583309                       # Total read bandwidth from this memory (bytes/s)
system.mem_ctrl.bw_read::total             1056940832                       # Total read bandwidth from this memory (bytes/s)
system.mem_ctrl.bw_inst_read::cpu.inst      963357523                       # Instruction read bandwidth from this memory (bytes/s)
system.mem_ctrl.bw_inst_read::total         963357523                       # Instruction read bandwidth from this memory (bytes/s)
system.mem_ctrl.bw_write::cpu.data           23853228                       # Write bandwidth from this memory (bytes/s)
system.mem_ctrl.bw_write::total              23853228                       # Write bandwidth from this memory (bytes/s)
system.mem_ctrl.bw_total::cpu.inst          963357523                       # Total bandwidth to/from this memory (bytes/s)
system.mem_ctrl.bw_total::cpu.data          117436537                       # Total bandwidth to/from this memory (bytes/s)
system.mem_ctrl.bw_total::total            1080794061                       # Total bandwidth to/from this memory (bytes/s)
system.mem_ctrl.readReqs                       498413                       # Number of read requests accepted
system.mem_ctrl.writeReqs                       76154                       # Number of write requests accepted
system.mem_ctrl.readBursts                     498413                       # Number of DRAM read bursts, including those serviced by the write queue
system.mem_ctrl.writeBursts                     76154                       # Number of DRAM write bursts, including those merged in the write queue
system.mem_ctrl.bytesReadDRAM                26641600                       # Total number of bytes read from DRAM
system.mem_ctrl.bytesReadWrQ                  5256832                       # Total number of bytes read from write queue
system.mem_ctrl.bytesWritten                   604160                       # Total number of bytes written to DRAM
system.mem_ctrl.bytesReadSys                 15240063                       # Total read bytes from the system interface side
system.mem_ctrl.bytesWrittenSys                343939                       # Total written bytes from the system interface side
system.mem_ctrl.servicedByWrQ                   82138                       # Number of DRAM read bursts serviced by the write queue
system.mem_ctrl.mergedWrBursts                  66691                       # Number of DRAM write bursts merged with an existing one
system.mem_ctrl.neitherReadNorWriteReqs             0                       # Number of requests that are neither read nor write
system.mem_ctrl.perBankRdBursts::0             169521                       # Per bank write bursts
system.mem_ctrl.perBankRdBursts::1              41321                       # Per bank write bursts
system.mem_ctrl.perBankRdBursts::2               3791                       # Per bank write bursts
system.mem_ctrl.perBankRdBursts::3               2836                       # Per bank write bursts
system.mem_ctrl.perBankRdBursts::4               3156                       # Per bank write bursts
system.mem_ctrl.perBankRdBursts::5              30502                       # Per bank write bursts
system.mem_ctrl.perBankRdBursts::6             132205                       # Per bank write bursts
system.mem_ctrl.perBankRdBursts::7              15737                       # Per bank write bursts
system.mem_ctrl.perBankRdBursts::8               2098                       # Per bank write bursts
system.mem_ctrl.perBankRdBursts::9               1977                       # Per bank write bursts
system.mem_ctrl.perBankRdBursts::10              3136                       # Per bank write bursts
system.mem_ctrl.perBankRdBursts::11              2560                       # Per bank write bursts
system.mem_ctrl.perBankRdBursts::12               402                       # Per bank write bursts
system.mem_ctrl.perBankRdBursts::13               995                       # Per bank write bursts
system.mem_ctrl.perBankRdBursts::14              1359                       # Per bank write bursts
system.mem_ctrl.perBankRdBursts::15              4679                       # Per bank write bursts
system.mem_ctrl.perBankWrBursts::0               1624                       # Per bank write bursts
system.mem_ctrl.perBankWrBursts::1               1745                       # Per bank write bursts
system.mem_ctrl.perBankWrBursts::2               1828                       # Per bank write bursts
system.mem_ctrl.perBankWrBursts::3               1647                       # Per bank write bursts
system.mem_ctrl.perBankWrBursts::4                 25                       # Per bank write bursts
system.mem_ctrl.perBankWrBursts::5                129                       # Per bank write bursts
system.mem_ctrl.perBankWrBursts::6                739                       # Per bank write bursts
system.mem_ctrl.perBankWrBursts::7                 59                       # Per bank write bursts
system.mem_ctrl.perBankWrBursts::8                 33                       # Per bank write bursts
system.mem_ctrl.perBankWrBursts::9                112                       # Per bank write bursts
system.mem_ctrl.perBankWrBursts::10               118                       # Per bank write bursts
system.mem_ctrl.perBankWrBursts::11                83                       # Per bank write bursts
system.mem_ctrl.perBankWrBursts::12                 0                       # Per bank write bursts
system.mem_ctrl.perBankWrBursts::13                 5                       # Per bank write bursts
system.mem_ctrl.perBankWrBursts::14                49                       # Per bank write bursts
system.mem_ctrl.perBankWrBursts::15              1244                       # Per bank write bursts
system.mem_ctrl.numRdRetry                          0                       # Number of times read queue was full causing retry
system.mem_ctrl.numWrRetry                          0                       # Number of times write queue was full causing retry
system.mem_ctrl.totGap                    14418968000                       # Total gap between requests
system.mem_ctrl.readPktSize::0                   7593                       # Read request sizes (log2)
system.mem_ctrl.readPktSize::1                   2619                       # Read request sizes (log2)
system.mem_ctrl.readPktSize::2                 208178                       # Read request sizes (log2)
system.mem_ctrl.readPktSize::3                  62981                       # Read request sizes (log2)
system.mem_ctrl.readPktSize::4                      0                       # Read request sizes (log2)
system.mem_ctrl.readPktSize::5                      0                       # Read request sizes (log2)
system.mem_ctrl.readPktSize::6                 217042                       # Read request sizes (log2)
system.mem_ctrl.writePktSize::0                   105                       # Write request sizes (log2)
system.mem_ctrl.writePktSize::1                    19                       # Write request sizes (log2)
system.mem_ctrl.writePktSize::2                 66111                       # Write request sizes (log2)
system.mem_ctrl.writePktSize::3                  9919                       # Write request sizes (log2)
system.mem_ctrl.writePktSize::4                     0                       # Write request sizes (log2)
system.mem_ctrl.writePktSize::5                     0                       # Write request sizes (log2)
system.mem_ctrl.writePktSize::6                     0                       # Write request sizes (log2)
system.mem_ctrl.rdQLenPdf::0                   244732                       # What read queue length does an incoming req see
system.mem_ctrl.rdQLenPdf::1                   167634                       # What read queue length does an incoming req see
system.mem_ctrl.rdQLenPdf::2                     3909                       # What read queue length does an incoming req see
system.mem_ctrl.rdQLenPdf::3                        0                       # What read queue length does an incoming req see
system.mem_ctrl.rdQLenPdf::4                        0                       # What read queue length does an incoming req see
system.mem_ctrl.rdQLenPdf::5                        0                       # What read queue length does an incoming req see
system.mem_ctrl.rdQLenPdf::6                        0                       # What read queue length does an incoming req see
system.mem_ctrl.rdQLenPdf::7                        0                       # What read queue length does an incoming req see
system.mem_ctrl.rdQLenPdf::8                        0                       # What read queue length does an incoming req see
system.mem_ctrl.rdQLenPdf::9                        0                       # What read queue length does an incoming req see
system.mem_ctrl.rdQLenPdf::10                       0                       # What read queue length does an incoming req see
system.mem_ctrl.rdQLenPdf::11                       0                       # What read queue length does an incoming req see
system.mem_ctrl.rdQLenPdf::12                       0                       # What read queue length does an incoming req see
system.mem_ctrl.rdQLenPdf::13                       0                       # What read queue length does an incoming req see
system.mem_ctrl.rdQLenPdf::14                       0                       # What read queue length does an incoming req see
system.mem_ctrl.rdQLenPdf::15                       0                       # What read queue length does an incoming req see
system.mem_ctrl.rdQLenPdf::16                       0                       # What read queue length does an incoming req see
system.mem_ctrl.rdQLenPdf::17                       0                       # What read queue length does an incoming req see
system.mem_ctrl.rdQLenPdf::18                       0                       # What read queue length does an incoming req see
system.mem_ctrl.rdQLenPdf::19                       0                       # What read queue length does an incoming req see
system.mem_ctrl.rdQLenPdf::20                       0                       # What read queue length does an incoming req see
system.mem_ctrl.rdQLenPdf::21                       0                       # What read queue length does an incoming req see
system.mem_ctrl.rdQLenPdf::22                       0                       # What read queue length does an incoming req see
system.mem_ctrl.rdQLenPdf::23                       0                       # What read queue length does an incoming req see
system.mem_ctrl.rdQLenPdf::24                       0                       # What read queue length does an incoming req see
system.mem_ctrl.rdQLenPdf::25                       0                       # What read queue length does an incoming req see
system.mem_ctrl.rdQLenPdf::26                       0                       # What read queue length does an incoming req see
system.mem_ctrl.rdQLenPdf::27                       0                       # What read queue length does an incoming req see
system.mem_ctrl.rdQLenPdf::28                       0                       # What read queue length does an incoming req see
system.mem_ctrl.rdQLenPdf::29                       0                       # What read queue length does an incoming req see
system.mem_ctrl.rdQLenPdf::30                       0                       # What read queue length does an incoming req see
system.mem_ctrl.rdQLenPdf::31                       0                       # What read queue length does an incoming req see
system.mem_ctrl.wrQLenPdf::0                        1                       # What write queue length does an incoming req see
system.mem_ctrl.wrQLenPdf::1                        1                       # What write queue length does an incoming req see
system.mem_ctrl.wrQLenPdf::2                        1                       # What write queue length does an incoming req see
system.mem_ctrl.wrQLenPdf::3                        1                       # What write queue length does an incoming req see
system.mem_ctrl.wrQLenPdf::4                        1                       # What write queue length does an incoming req see
system.mem_ctrl.wrQLenPdf::5                        1                       # What write queue length does an incoming req see
system.mem_ctrl.wrQLenPdf::6                        1                       # What write queue length does an incoming req see
system.mem_ctrl.wrQLenPdf::7                        1                       # What write queue length does an incoming req see
system.mem_ctrl.wrQLenPdf::8                        1                       # What write queue length does an incoming req see
system.mem_ctrl.wrQLenPdf::9                        1                       # What write queue length does an incoming req see
system.mem_ctrl.wrQLenPdf::10                       1                       # What write queue length does an incoming req see
system.mem_ctrl.wrQLenPdf::11                       1                       # What write queue length does an incoming req see
system.mem_ctrl.wrQLenPdf::12                       1                       # What write queue length does an incoming req see
system.mem_ctrl.wrQLenPdf::13                       1                       # What write queue length does an incoming req see
system.mem_ctrl.wrQLenPdf::14                       1                       # What write queue length does an incoming req see
system.mem_ctrl.wrQLenPdf::15                       1                       # What write queue length does an incoming req see
system.mem_ctrl.wrQLenPdf::16                       1                       # What write queue length does an incoming req see
system.mem_ctrl.wrQLenPdf::17                     585                       # What write queue length does an incoming req see
system.mem_ctrl.wrQLenPdf::18                     587                       # What write queue length does an incoming req see
system.mem_ctrl.wrQLenPdf::19                     590                       # What write queue length does an incoming req see
system.mem_ctrl.wrQLenPdf::20                     591                       # What write queue length does an incoming req see
system.mem_ctrl.wrQLenPdf::21                     592                       # What write queue length does an incoming req see
system.mem_ctrl.wrQLenPdf::22                     593                       # What write queue length does an incoming req see
system.mem_ctrl.wrQLenPdf::23                     591                       # What write queue length does an incoming req see
system.mem_ctrl.wrQLenPdf::24                     591                       # What write queue length does an incoming req see
system.mem_ctrl.wrQLenPdf::25                     591                       # What write queue length does an incoming req see
system.mem_ctrl.wrQLenPdf::26                     592                       # What write queue length does an incoming req see
system.mem_ctrl.wrQLenPdf::27                     590                       # What write queue length does an incoming req see
system.mem_ctrl.wrQLenPdf::28                     592                       # What write queue length does an incoming req see
system.mem_ctrl.wrQLenPdf::29                     591                       # What write queue length does an incoming req see
system.mem_ctrl.wrQLenPdf::30                     590                       # What write queue length does an incoming req see
system.mem_ctrl.wrQLenPdf::31                     590                       # What write queue length does an incoming req see
system.mem_ctrl.wrQLenPdf::32                     590                       # What write queue length does an incoming req see
system.mem_ctrl.wrQLenPdf::33                       0                       # What write queue length does an incoming req see
system.mem_ctrl.wrQLenPdf::34                       0                       # What write queue length does an incoming req see
system.mem_ctrl.wrQLenPdf::35                       0                       # What write queue length does an incoming req see
system.mem_ctrl.wrQLenPdf::36                       0                       # What write queue length does an incoming req see
system.mem_ctrl.wrQLenPdf::37                       0                       # What write queue length does an incoming req see
system.mem_ctrl.wrQLenPdf::38                       0                       # What write queue length does an incoming req see
system.mem_ctrl.wrQLenPdf::39                       0                       # What write queue length does an incoming req see
system.mem_ctrl.wrQLenPdf::40                       0                       # What write queue length does an incoming req see
system.mem_ctrl.wrQLenPdf::41                       0                       # What write queue length does an incoming req see
system.mem_ctrl.wrQLenPdf::42                       0                       # What write queue length does an incoming req see
system.mem_ctrl.wrQLenPdf::43                       0                       # What write queue length does an incoming req see
system.mem_ctrl.wrQLenPdf::44                       0                       # What write queue length does an incoming req see
system.mem_ctrl.wrQLenPdf::45                       0                       # What write queue length does an incoming req see
system.mem_ctrl.wrQLenPdf::46                       0                       # What write queue length does an incoming req see
system.mem_ctrl.wrQLenPdf::47                       0                       # What write queue length does an incoming req see
system.mem_ctrl.wrQLenPdf::48                       0                       # What write queue length does an incoming req see
system.mem_ctrl.wrQLenPdf::49                       0                       # What write queue length does an incoming req see
system.mem_ctrl.wrQLenPdf::50                       0                       # What write queue length does an incoming req see
system.mem_ctrl.wrQLenPdf::51                       0                       # What write queue length does an incoming req see
system.mem_ctrl.wrQLenPdf::52                       0                       # What write queue length does an incoming req see
system.mem_ctrl.wrQLenPdf::53                       0                       # What write queue length does an incoming req see
system.mem_ctrl.wrQLenPdf::54                       0                       # What write queue length does an incoming req see
system.mem_ctrl.wrQLenPdf::55                       0                       # What write queue length does an incoming req see
system.mem_ctrl.wrQLenPdf::56                       0                       # What write queue length does an incoming req see
system.mem_ctrl.wrQLenPdf::57                       0                       # What write queue length does an incoming req see
system.mem_ctrl.wrQLenPdf::58                       0                       # What write queue length does an incoming req see
system.mem_ctrl.wrQLenPdf::59                       0                       # What write queue length does an incoming req see
system.mem_ctrl.wrQLenPdf::60                       0                       # What write queue length does an incoming req see
system.mem_ctrl.wrQLenPdf::61                       0                       # What write queue length does an incoming req see
system.mem_ctrl.wrQLenPdf::62                       0                       # What write queue length does an incoming req see
system.mem_ctrl.wrQLenPdf::63                       0                       # What write queue length does an incoming req see
system.mem_ctrl.bytesPerActivate::samples        48206                       # Bytes accessed per row activation
system.mem_ctrl.bytesPerActivate::mean     565.142596                       # Bytes accessed per row activation
system.mem_ctrl.bytesPerActivate::gmean    333.305432                       # Bytes accessed per row activation
system.mem_ctrl.bytesPerActivate::stdev    430.508112                       # Bytes accessed per row activation
system.mem_ctrl.bytesPerActivate::0-127         13703     28.43%     28.43% # Bytes accessed per row activation
system.mem_ctrl.bytesPerActivate::128-255         3600      7.47%     35.89% # Bytes accessed per row activation
system.mem_ctrl.bytesPerActivate::256-383         3794      7.87%     43.76% # Bytes accessed per row activation
system.mem_ctrl.bytesPerActivate::384-511         3569      7.40%     51.17% # Bytes accessed per row activation
system.mem_ctrl.bytesPerActivate::512-639          882      1.83%     53.00% # Bytes accessed per row activation
system.mem_ctrl.bytesPerActivate::640-767          577      1.20%     54.19% # Bytes accessed per row activation
system.mem_ctrl.bytesPerActivate::768-895          640      1.33%     55.52% # Bytes accessed per row activation
system.mem_ctrl.bytesPerActivate::896-1023         1109      2.30%     57.82% # Bytes accessed per row activation
system.mem_ctrl.bytesPerActivate::1024-1151        20332     42.18%    100.00% # Bytes accessed per row activation
system.mem_ctrl.bytesPerActivate::total         48206                       # Bytes accessed per row activation
system.mem_ctrl.rdPerTurnAround::samples          590                       # Reads before turning the bus around for writes
system.mem_ctrl.rdPerTurnAround::mean      705.389831                       # Reads before turning the bus around for writes
system.mem_ctrl.rdPerTurnAround::gmean     259.993230                       # Reads before turning the bus around for writes
system.mem_ctrl.rdPerTurnAround::stdev    5930.482736                       # Reads before turning the bus around for writes
system.mem_ctrl.rdPerTurnAround::0-8191           587     99.49%     99.49% # Reads before turning the bus around for writes
system.mem_ctrl.rdPerTurnAround::16384-24575            1      0.17%     99.66% # Reads before turning the bus around for writes
system.mem_ctrl.rdPerTurnAround::40960-49151            1      0.17%     99.83% # Reads before turning the bus around for writes
system.mem_ctrl.rdPerTurnAround::131072-139263            1      0.17%    100.00% # Reads before turning the bus around for writes
system.mem_ctrl.rdPerTurnAround::total            590                       # Reads before turning the bus around for writes
system.mem_ctrl.wrPerTurnAround::samples          590                       # Writes before turning the bus around for reads
system.mem_ctrl.wrPerTurnAround::mean              16                       # Writes before turning the bus around for reads
system.mem_ctrl.wrPerTurnAround::gmean      16.000000                       # Writes before turning the bus around for reads
system.mem_ctrl.wrPerTurnAround::16               590    100.00%    100.00% # Writes before turning the bus around for reads
system.mem_ctrl.wrPerTurnAround::total            590                       # Writes before turning the bus around for reads
system.mem_ctrl.totQLat                    4376389250                       # Total ticks spent queuing
system.mem_ctrl.totMemAccLat              12181545500                       # Total ticks spent from burst creation until serviced by the DRAM
system.mem_ctrl.totBusLat                  2081375000                       # Total ticks spent in databus transfers
system.mem_ctrl.avgQLat                      10513.22                       # Average queueing delay per DRAM burst
system.mem_ctrl.avgBusLat                     5000.00                       # Average bus latency per DRAM burst
system.mem_ctrl.avgMemAccLat                 29263.22                       # Average memory access latency per DRAM burst
system.mem_ctrl.avgRdBW                       1847.68                       # Average DRAM read bandwidth in MiByte/s
system.mem_ctrl.avgWrBW                         41.90                       # Average achieved write bandwidth in MiByte/s
system.mem_ctrl.avgRdBWSys                    1056.95                       # Average system read bandwidth in MiByte/s
system.mem_ctrl.avgWrBWSys                      23.85                       # Average system write bandwidth in MiByte/s
system.mem_ctrl.peakBW                       12800.00                       # Theoretical peak bandwidth in MiByte/s
system.mem_ctrl.busUtil                         14.76                       # Data bus utilization in percentage
system.mem_ctrl.busUtilRead                     14.43                       # Data bus utilization in percentage for reads
system.mem_ctrl.busUtilWrite                     0.33                       # Data bus utilization in percentage for writes
system.mem_ctrl.avgRdQLen                        1.64                       # Average read queue length when enqueuing
system.mem_ctrl.avgWrQLen                       24.01                       # Average write queue length when enqueuing
system.mem_ctrl.readRowHits                    368828                       # Number of row buffer hits during reads
system.mem_ctrl.writeRowHits                     8673                       # Number of row buffer hits during writes
system.mem_ctrl.readRowHitRate                  88.60                       # Row buffer hit rate for reads
system.mem_ctrl.writeRowHitRate                 91.65                       # Row buffer hit rate for writes
system.mem_ctrl.avgGap                       25095.36                       # Average gap between requests
system.mem_ctrl.pageHitRate                     88.67                       # Row buffer hit rate, read and write combined
system.mem_ctrl_0.actEnergy                 329853720                       # Energy for activate commands per rank (pJ)
system.mem_ctrl_0.preEnergy                 175310025                       # Energy for precharge commands per rank (pJ)
system.mem_ctrl_0.readEnergy               2849352660                       # Energy for read commands per rank (pJ)
system.mem_ctrl_0.writeEnergy                40695120                       # Energy for write commands per rank (pJ)
system.mem_ctrl_0.refreshEnergy          1138927920.000000                       # Energy for refresh commands per rank (pJ)
system.mem_ctrl_0.actBackEnergy            3925729650                       # Energy for active background per rank (pJ)
system.mem_ctrl_0.preBackEnergy              32123040                       # Energy for precharge background per rank (pJ)
system.mem_ctrl_0.actPowerDownEnergy       2588096400                       # Energy for active power-down per rank (pJ)
system.mem_ctrl_0.prePowerDownEnergy         16115040                       # Energy for precharge power-down per rank (pJ)
system.mem_ctrl_0.selfRefreshEnergy           3761325                       # Energy for self refresh per rank (pJ)
system.mem_ctrl_0.totalEnergy             11100088170                       # Total energy per rank (pJ)
system.mem_ctrl_0.averagePower             769.825118                       # Core power per rank (mW)
system.mem_ctrl_0.totalIdleTime            5725661400                       # Total Idle time Per DRAM Rank
system.mem_ctrl_0.memoryStateTime::IDLE       9954400                       # Time in different power states
system.mem_ctrl_0.memoryStateTime::REF      482026000                       # Time in different power states
system.mem_ctrl_0.memoryStateTime::SREF       8374150                       # Time in different power states
system.mem_ctrl_0.memoryStateTime::PRE_PDN     41992400                       # Time in different power states
system.mem_ctrl_0.memoryStateTime::ACT     8201089350                       # Time in different power states
system.mem_ctrl_0.memoryStateTime::ACT_PDN   5675534500                       # Time in different power states
system.mem_ctrl_1.actEnergy                  14394240                       # Energy for activate commands per rank (pJ)
system.mem_ctrl_1.preEnergy                   7631745                       # Energy for precharge commands per rank (pJ)
system.mem_ctrl_1.readEnergy                122843700                       # Energy for read commands per rank (pJ)
system.mem_ctrl_1.writeEnergy                 8581680                       # Energy for write commands per rank (pJ)
system.mem_ctrl_1.refreshEnergy          607878960.000000                       # Energy for refresh commands per rank (pJ)
system.mem_ctrl_1.actBackEnergy             547514070                       # Energy for active background per rank (pJ)
system.mem_ctrl_1.preBackEnergy              41928480                       # Energy for precharge background per rank (pJ)
system.mem_ctrl_1.actPowerDownEnergy       1272067860                       # Energy for active power-down per rank (pJ)
system.mem_ctrl_1.prePowerDownEnergy        767862720                       # Energy for precharge power-down per rank (pJ)
system.mem_ctrl_1.selfRefreshEnergy        2119125795                       # Energy for self refresh per rank (pJ)
system.mem_ctrl_1.totalEnergy              5510661390                       # Total energy per rank (pJ)
system.mem_ctrl_1.averagePower             382.181249                       # Core power per rank (mW)
system.mem_ctrl_1.totalIdleTime           13107299150                       # Total Idle time Per DRAM Rank
system.mem_ctrl_1.memoryStateTime::IDLE      81060050                       # Time in different power states
system.mem_ctrl_1.memoryStateTime::REF      258520000                       # Time in different power states
system.mem_ctrl_1.memoryStateTime::SREF    8317979000                       # Time in different power states
system.mem_ctrl_1.memoryStateTime::PRE_PDN   1999635250                       # Time in different power states
system.mem_ctrl_1.memoryStateTime::ACT      972091600                       # Time in different power states
system.mem_ctrl_1.memoryStateTime::ACT_PDN   2789684900                       # Time in different power states
system.pwrStateResidencyTicks::UNDEFINED  14418970800                       # Cumulative time (in ticks) in various power states
system.cpu.branchPred.lookups                      77                       # Number of BP lookups
system.cpu.branchPred.condPredicted                77                       # Number of conditional branches predicted
system.cpu.branchPred.condIncorrect                31                       # Number of conditional branches incorrect
system.cpu.branchPred.BTBLookups                   43                       # Number of BTB lookups
system.cpu.branchPred.BTBHits                       0                       # Number of BTB hits
system.cpu.branchPred.BTBCorrect                    0                       # Number of correct BTB predictions (this stat may not work properly.
system.cpu.branchPred.BTBHitPct              0.000000                       # BTB Hit Percentage
system.cpu.branchPred.usedRAS                       0                       # Number of times the RAS was used to get a target.
system.cpu.branchPred.RASInCorrect                  0                       # Number of incorrect RAS predictions.
system.cpu.branchPred.indirectLookups              43                       # Number of indirect predictor lookups.
system.cpu.branchPred.indirectHits                  0                       # Number of indirect target hits.
system.cpu.branchPred.indirectMisses               43                       # Number of indirect misses.
system.cpu.branchPredindirectMispredicted           16                       # Number of mispredicted indirect branches.
system.cpu.dtb.walker.pwrStateResidencyTicks::UNDEFINED  14418970800                       # Cumulative time (in ticks) in various power states
system.cpu.dtb.rdAccesses                      283574                       # TLB accesses on read requests
system.cpu.dtb.wrAccesses                       76327                       # TLB accesses on write requests
system.cpu.dtb.rdMisses                          1693                       # TLB misses on read requests
system.cpu.dtb.wrMisses                            33                       # TLB misses on write requests
system.cpu.apic_clk_domain.clock                 6400                       # Clock period in ticks
system.cpu.interrupts.pwrStateResidencyTicks::UNDEFINED  14418970800                       # Cumulative time (in ticks) in various power states
system.cpu.itb.walker.pwrStateResidencyTicks::UNDEFINED  14418970800                       # Cumulative time (in ticks) in various power states
system.cpu.itb.rdAccesses                           0                       # TLB accesses on read requests
system.cpu.itb.wrAccesses                      217042                       # TLB accesses on write requests
system.cpu.itb.rdMisses                             0                       # TLB misses on read requests
system.cpu.itb.wrMisses                            89                       # TLB misses on write requests
system.cpu.workload.numSyscalls                    32                       # Number of system calls
system.cpu.pwrStateResidencyTicks::ON     14418970800                       # Cumulative time (in ticks) in various power states
system.cpu.numCycles                         36047427                       # number of cpu cycles simulated
system.cpu.numWorkItemsStarted                      0                       # number of work items this cpu started
system.cpu.numWorkItemsCompleted                    0                       # number of work items this cpu completed
system.cpu.committedInsts                      567373                       # Number of instructions committed
system.cpu.committedOps                        999102                       # Number of ops (including micro ops) committed
system.cpu.discardedOps                        224465                       # Number of ops (including micro ops) which were discarded before commit
system.cpu.numFetchSuspends                         0                       # Number of times Execute suspended instruction fetching
system.cpu.cpi                              63.533913                       # CPI: cycles per instruction
system.cpu.ipc                               0.015740                       # IPC: instructions per cycle
system.cpu.op_class_0::No_OpClass                1287      0.13%      0.13% # Class of committed instruction
system.cpu.op_class_0::IntAlu                  668743     66.93%     67.06% # Class of committed instruction
system.cpu.op_class_0::IntMult                    146      0.01%     67.08% # Class of committed instruction
system.cpu.op_class_0::IntDiv                    1131      0.11%     67.19% # Class of committed instruction
system.cpu.op_class_0::FloatAdd                  2227      0.22%     67.41% # Class of committed instruction
system.cpu.op_class_0::FloatCmp                     0      0.00%     67.41% # Class of committed instruction
system.cpu.op_class_0::FloatCvt                     0      0.00%     67.41% # Class of committed instruction
system.cpu.op_class_0::FloatMult                    0      0.00%     67.41% # Class of committed instruction
system.cpu.op_class_0::FloatMultAcc                 0      0.00%     67.41% # Class of committed instruction
system.cpu.op_class_0::FloatDiv                     0      0.00%     67.41% # Class of committed instruction
system.cpu.op_class_0::FloatMisc                    0      0.00%     67.41% # Class of committed instruction
system.cpu.op_class_0::FloatSqrt                    0      0.00%     67.41% # Class of committed instruction
system.cpu.op_class_0::SimdAdd                      0      0.00%     67.41% # Class of committed instruction
system.cpu.op_class_0::SimdAddAcc                   0      0.00%     67.41% # Class of committed instruction
system.cpu.op_class_0::SimdAlu                      0      0.00%     67.41% # Class of committed instruction
system.cpu.op_class_0::SimdCmp                      0      0.00%     67.41% # Class of committed instruction
system.cpu.op_class_0::SimdCvt                      0      0.00%     67.41% # Class of committed instruction
system.cpu.op_class_0::SimdMisc                     0      0.00%     67.41% # Class of committed instruction
system.cpu.op_class_0::SimdMult                     0      0.00%     67.41% # Class of committed instruction
system.cpu.op_class_0::SimdMultAcc                  0      0.00%     67.41% # Class of committed instruction
system.cpu.op_class_0::SimdShift                    0      0.00%     67.41% # Class of committed instruction
system.cpu.op_class_0::SimdShiftAcc                 0      0.00%     67.41% # Class of committed instruction
system.cpu.op_class_0::SimdSqrt                     0      0.00%     67.41% # Class of committed instruction
system.cpu.op_class_0::SimdFloatAdd                 0      0.00%     67.41% # Class of committed instruction
system.cpu.op_class_0::SimdFloatAlu                 0      0.00%     67.41% # Class of committed instruction
system.cpu.op_class_0::SimdFloatCmp                 0      0.00%     67.41% # Class of committed instruction
system.cpu.op_class_0::SimdFloatCvt                 0      0.00%     67.41% # Class of committed instruction
system.cpu.op_class_0::SimdFloatDiv                 0      0.00%     67.41% # Class of committed instruction
system.cpu.op_class_0::SimdFloatMisc                0      0.00%     67.41% # Class of committed instruction
system.cpu.op_class_0::SimdFloatMult                0      0.00%     67.41% # Class of committed instruction
system.cpu.op_class_0::SimdFloatMultAcc             0      0.00%     67.41% # Class of committed instruction
system.cpu.op_class_0::SimdFloatSqrt                0      0.00%     67.41% # Class of committed instruction
system.cpu.op_class_0::MemRead                 248632     24.89%     92.30% # Class of committed instruction
system.cpu.op_class_0::MemWrite                 75770      7.58%     99.88% # Class of committed instruction
system.cpu.op_class_0::FloatMemRead               782      0.08%     99.96% # Class of committed instruction
system.cpu.op_class_0::FloatMemWrite              384      0.04%    100.00% # Class of committed instruction
system.cpu.op_class_0::IprAccess                    0      0.00%    100.00% # Class of committed instruction
system.cpu.op_class_0::InstPrefetch                 0      0.00%    100.00% # Class of committed instruction
system.cpu.op_class_0::total                   999102                       # Class of committed instruction
system.cpu.tickCycles                         2983276                       # Number of cycles that the object actually ticked
system.cpu.idleCycles                        33064151                       # Total number of cycles that the object has spent stopped
system.membus.snoop_filter.tot_requests             0                       # Total number of requests made to the snoop filter.
system.membus.snoop_filter.hit_single_requests            0                       # Number of requests hitting in the snoop filter with a single holder of the requested data.
system.membus.snoop_filter.hit_multi_requests            0                       # Number of requests hitting in the snoop filter with multiple (>1) holders of the requested data.
system.membus.snoop_filter.tot_snoops               0                       # Total number of snoops made to the snoop filter.
system.membus.snoop_filter.hit_single_snoops            0                       # Number of snoops hitting in the snoop filter with a single holder of the requested data.
system.membus.snoop_filter.hit_multi_snoops            0                       # Number of snoops hitting in the snoop filter with multiple (>1) holders of the requested data.
system.membus.pwrStateResidencyTicks::UNDEFINED  14418970800                       # Cumulative time (in ticks) in various power states
system.membus.trans_dist::ReadReq              498413                       # Transaction distribution
system.membus.trans_dist::ReadResp             498412                       # Transaction distribution
system.membus.trans_dist::WriteReq              76154                       # Transaction distribution
system.membus.trans_dist::WriteResp             76154                       # Transaction distribution
system.membus.pkt_count_system.cpu.fetch1.icache_port::system.mem_ctrl.port       434083                       # Packet count per connected master and slave (bytes)
system.membus.pkt_count_system.cpu.fetch1.icache_port::total       434083                       # Packet count per connected master and slave (bytes)
system.membus.pkt_count_system.cpu.execute.dcache_port::system.mem_ctrl.port       715050                       # Packet count per connected master and slave (bytes)
system.membus.pkt_count_system.cpu.execute.dcache_port::total       715050                       # Packet count per connected master and slave (bytes)
system.membus.pkt_count::total                1149133                       # Packet count per connected master and slave (bytes)
system.membus.pkt_size_system.cpu.fetch1.icache_port::system.mem_ctrl.port     13890624                       # Cumulative packet size per connected master and slave (bytes)
system.membus.pkt_size_system.cpu.fetch1.icache_port::total     13890624                       # Cumulative packet size per connected master and slave (bytes)
system.membus.pkt_size_system.cpu.execute.dcache_port::system.mem_ctrl.port      1693314                       # Cumulative packet size per connected master and slave (bytes)
system.membus.pkt_size_system.cpu.execute.dcache_port::total      1693314                       # Cumulative packet size per connected master and slave (bytes)
system.membus.pkt_size::total                15583938                       # Cumulative packet size per connected master and slave (bytes)
system.membus.snoops                                0                       # Total snoops (count)
system.membus.snoopTraffic                          0                       # Total snoop traffic (bytes)
system.membus.snoop_fanout::samples            574567                       # Request fanout histogram
system.membus.snoop_fanout::mean                    0                       # Request fanout histogram
system.membus.snoop_fanout::stdev                   0                       # Request fanout histogram
system.membus.snoop_fanout::underflows              0      0.00%      0.00% # Request fanout histogram
system.membus.snoop_fanout::0                  574567    100.00%    100.00% # Request fanout histogram
system.membus.snoop_fanout::1                       0      0.00%    100.00% # Request fanout histogram
system.membus.snoop_fanout::overflows               0      0.00%    100.00% # Request fanout histogram
system.membus.snoop_fanout::min_value               0                       # Request fanout histogram
system.membus.snoop_fanout::max_value               0                       # Request fanout histogram
system.membus.snoop_fanout::total              574567                       # Request fanout histogram
system.membus.reqLayer2.occupancy           260288400                       # Layer occupancy (ticks)
system.membus.reqLayer2.utilization               1.8                       # Layer utilization (%)
system.membus.respLayer0.occupancy          454019150                       # Layer occupancy (ticks)
system.membus.respLayer0.utilization              3.1                       # Layer utilization (%)
system.membus.respLayer1.occupancy          283519250                       # Layer occupancy (ticks)
system.membus.respLayer1.utilization              2.0                       # Layer utilization (%)

---------- End Simulation Statistics   ----------
