
---------- Begin Simulation Statistics ----------
sim_seconds                                  0.000372                       # Number of seconds simulated
sim_ticks                                   372033261                       # Number of ticks simulated
final_tick                                  372033261                       # Number of ticks from beginning of simulation (restored from checkpoints and never reset)
sim_freq                                 1000000000000                       # Frequency of simulated ticks
host_inst_rate                                 149208                       # Simulator instruction rate (inst/s)
host_op_rate                                   273340                       # Simulator op (including micro ops) rate (op/s)
host_tick_rate                              307898853                       # Simulator tick rate (ticks/s)
host_mem_usage                                 682764                       # Number of bytes of host memory used
host_seconds                                     1.21                       # Real time elapsed on the host
sim_insts                                      180286                       # Number of instructions simulated
sim_ops                                        330274                       # Number of ops (including micro ops) simulated
system.clk_domain.voltage_domain.voltage            1                       # Voltage in Volts
system.clk_domain.clock                           333                       # Clock period in ticks
system.mem_ctrl.pwrStateResidencyTicks::UNDEFINED    372033261                       # Cumulative time (in ticks) in various power states
system.mem_ctrl.bytes_read::cpu.inst            72448                       # Number of bytes read from this memory
system.mem_ctrl.bytes_read::cpu.data           154368                       # Number of bytes read from this memory
system.mem_ctrl.bytes_read::total              226816                       # Number of bytes read from this memory
system.mem_ctrl.bytes_inst_read::cpu.inst        72448                       # Number of instructions bytes read from this memory
system.mem_ctrl.bytes_inst_read::total          72448                       # Number of instructions bytes read from this memory
system.mem_ctrl.num_reads::cpu.inst              1132                       # Number of read requests responded to by this memory
system.mem_ctrl.num_reads::cpu.data              2412                       # Number of read requests responded to by this memory
system.mem_ctrl.num_reads::total                 3544                       # Number of read requests responded to by this memory
system.mem_ctrl.bw_read::cpu.inst           194735277                       # Total read bandwidth from this memory (bytes/s)
system.mem_ctrl.bw_read::cpu.data           414930642                       # Total read bandwidth from this memory (bytes/s)
system.mem_ctrl.bw_read::total              609665919                       # Total read bandwidth from this memory (bytes/s)
system.mem_ctrl.bw_inst_read::cpu.inst      194735277                       # Instruction read bandwidth from this memory (bytes/s)
system.mem_ctrl.bw_inst_read::total         194735277                       # Instruction read bandwidth from this memory (bytes/s)
system.mem_ctrl.bw_total::cpu.inst          194735277                       # Total bandwidth to/from this memory (bytes/s)
system.mem_ctrl.bw_total::cpu.data          414930642                       # Total bandwidth to/from this memory (bytes/s)
system.mem_ctrl.bw_total::total             609665919                       # Total bandwidth to/from this memory (bytes/s)
system.mem_ctrl.readReqs                         3544                       # Number of read requests accepted
system.mem_ctrl.writeReqs                           0                       # Number of write requests accepted
system.mem_ctrl.readBursts                       3544                       # Number of DRAM read bursts, including those serviced by the write queue
system.mem_ctrl.writeBursts                         0                       # Number of DRAM write bursts, including those merged in the write queue
system.mem_ctrl.bytesReadDRAM                  226816                       # Total number of bytes read from DRAM
system.mem_ctrl.bytesReadWrQ                        0                       # Total number of bytes read from write queue
system.mem_ctrl.bytesWritten                        0                       # Total number of bytes written to DRAM
system.mem_ctrl.bytesReadSys                   226816                       # Total read bytes from the system interface side
system.mem_ctrl.bytesWrittenSys                     0                       # Total written bytes from the system interface side
system.mem_ctrl.servicedByWrQ                       0                       # Number of DRAM read bursts serviced by the write queue
system.mem_ctrl.mergedWrBursts                      0                       # Number of DRAM write bursts merged with an existing one
system.mem_ctrl.neitherReadNorWriteReqs             0                       # Number of requests that are neither read nor write
system.mem_ctrl.perBankRdBursts::0                243                       # Per bank write bursts
system.mem_ctrl.perBankRdBursts::1                238                       # Per bank write bursts
system.mem_ctrl.perBankRdBursts::2                210                       # Per bank write bursts
system.mem_ctrl.perBankRdBursts::3                156                       # Per bank write bursts
system.mem_ctrl.perBankRdBursts::4                267                       # Per bank write bursts
system.mem_ctrl.perBankRdBursts::5                273                       # Per bank write bursts
system.mem_ctrl.perBankRdBursts::6                262                       # Per bank write bursts
system.mem_ctrl.perBankRdBursts::7                242                       # Per bank write bursts
system.mem_ctrl.perBankRdBursts::8                221                       # Per bank write bursts
system.mem_ctrl.perBankRdBursts::9                303                       # Per bank write bursts
system.mem_ctrl.perBankRdBursts::10               367                       # Per bank write bursts
system.mem_ctrl.perBankRdBursts::11               252                       # Per bank write bursts
system.mem_ctrl.perBankRdBursts::12                38                       # Per bank write bursts
system.mem_ctrl.perBankRdBursts::13                76                       # Per bank write bursts
system.mem_ctrl.perBankRdBursts::14               138                       # Per bank write bursts
system.mem_ctrl.perBankRdBursts::15               258                       # Per bank write bursts
system.mem_ctrl.perBankWrBursts::0                  0                       # Per bank write bursts
system.mem_ctrl.perBankWrBursts::1                  0                       # Per bank write bursts
system.mem_ctrl.perBankWrBursts::2                  0                       # Per bank write bursts
system.mem_ctrl.perBankWrBursts::3                  0                       # Per bank write bursts
system.mem_ctrl.perBankWrBursts::4                  0                       # Per bank write bursts
system.mem_ctrl.perBankWrBursts::5                  0                       # Per bank write bursts
system.mem_ctrl.perBankWrBursts::6                  0                       # Per bank write bursts
system.mem_ctrl.perBankWrBursts::7                  0                       # Per bank write bursts
system.mem_ctrl.perBankWrBursts::8                  0                       # Per bank write bursts
system.mem_ctrl.perBankWrBursts::9                  0                       # Per bank write bursts
system.mem_ctrl.perBankWrBursts::10                 0                       # Per bank write bursts
system.mem_ctrl.perBankWrBursts::11                 0                       # Per bank write bursts
system.mem_ctrl.perBankWrBursts::12                 0                       # Per bank write bursts
system.mem_ctrl.perBankWrBursts::13                 0                       # Per bank write bursts
system.mem_ctrl.perBankWrBursts::14                 0                       # Per bank write bursts
system.mem_ctrl.perBankWrBursts::15                 0                       # Per bank write bursts
system.mem_ctrl.numRdRetry                          0                       # Number of times read queue was full causing retry
system.mem_ctrl.numWrRetry                          0                       # Number of times write queue was full causing retry
system.mem_ctrl.totGap                      371967327                       # Total gap between requests
system.mem_ctrl.readPktSize::0                      0                       # Read request sizes (log2)
system.mem_ctrl.readPktSize::1                      0                       # Read request sizes (log2)
system.mem_ctrl.readPktSize::2                      0                       # Read request sizes (log2)
system.mem_ctrl.readPktSize::3                      0                       # Read request sizes (log2)
system.mem_ctrl.readPktSize::4                      0                       # Read request sizes (log2)
system.mem_ctrl.readPktSize::5                      0                       # Read request sizes (log2)
system.mem_ctrl.readPktSize::6                   3544                       # Read request sizes (log2)
system.mem_ctrl.writePktSize::0                     0                       # Write request sizes (log2)
system.mem_ctrl.writePktSize::1                     0                       # Write request sizes (log2)
system.mem_ctrl.writePktSize::2                     0                       # Write request sizes (log2)
system.mem_ctrl.writePktSize::3                     0                       # Write request sizes (log2)
system.mem_ctrl.writePktSize::4                     0                       # Write request sizes (log2)
system.mem_ctrl.writePktSize::5                     0                       # Write request sizes (log2)
system.mem_ctrl.writePktSize::6                     0                       # Write request sizes (log2)
system.mem_ctrl.rdQLenPdf::0                     3287                       # What read queue length does an incoming req see
system.mem_ctrl.rdQLenPdf::1                      244                       # What read queue length does an incoming req see
system.mem_ctrl.rdQLenPdf::2                       13                       # What read queue length does an incoming req see
system.mem_ctrl.rdQLenPdf::3                        0                       # What read queue length does an incoming req see
system.mem_ctrl.rdQLenPdf::4                        0                       # What read queue length does an incoming req see
system.mem_ctrl.rdQLenPdf::5                        0                       # What read queue length does an incoming req see
system.mem_ctrl.rdQLenPdf::6                        0                       # What read queue length does an incoming req see
system.mem_ctrl.rdQLenPdf::7                        0                       # What read queue length does an incoming req see
system.mem_ctrl.rdQLenPdf::8                        0                       # What read queue length does an incoming req see
system.mem_ctrl.rdQLenPdf::9                        0                       # What read queue length does an incoming req see
system.mem_ctrl.rdQLenPdf::10                       0                       # What read queue length does an incoming req see
system.mem_ctrl.rdQLenPdf::11                       0                       # What read queue length does an incoming req see
system.mem_ctrl.rdQLenPdf::12                       0                       # What read queue length does an incoming req see
system.mem_ctrl.rdQLenPdf::13                       0                       # What read queue length does an incoming req see
system.mem_ctrl.rdQLenPdf::14                       0                       # What read queue length does an incoming req see
system.mem_ctrl.rdQLenPdf::15                       0                       # What read queue length does an incoming req see
system.mem_ctrl.rdQLenPdf::16                       0                       # What read queue length does an incoming req see
system.mem_ctrl.rdQLenPdf::17                       0                       # What read queue length does an incoming req see
system.mem_ctrl.rdQLenPdf::18                       0                       # What read queue length does an incoming req see
system.mem_ctrl.rdQLenPdf::19                       0                       # What read queue length does an incoming req see
system.mem_ctrl.rdQLenPdf::20                       0                       # What read queue length does an incoming req see
system.mem_ctrl.rdQLenPdf::21                       0                       # What read queue length does an incoming req see
system.mem_ctrl.rdQLenPdf::22                       0                       # What read queue length does an incoming req see
system.mem_ctrl.rdQLenPdf::23                       0                       # What read queue length does an incoming req see
system.mem_ctrl.rdQLenPdf::24                       0                       # What read queue length does an incoming req see
system.mem_ctrl.rdQLenPdf::25                       0                       # What read queue length does an incoming req see
system.mem_ctrl.rdQLenPdf::26                       0                       # What read queue length does an incoming req see
system.mem_ctrl.rdQLenPdf::27                       0                       # What read queue length does an incoming req see
system.mem_ctrl.rdQLenPdf::28                       0                       # What read queue length does an incoming req see
system.mem_ctrl.rdQLenPdf::29                       0                       # What read queue length does an incoming req see
system.mem_ctrl.rdQLenPdf::30                       0                       # What read queue length does an incoming req see
system.mem_ctrl.rdQLenPdf::31                       0                       # What read queue length does an incoming req see
system.mem_ctrl.wrQLenPdf::0                        0                       # What write queue length does an incoming req see
system.mem_ctrl.wrQLenPdf::1                        0                       # What write queue length does an incoming req see
system.mem_ctrl.wrQLenPdf::2                        0                       # What write queue length does an incoming req see
system.mem_ctrl.wrQLenPdf::3                        0                       # What write queue length does an incoming req see
system.mem_ctrl.wrQLenPdf::4                        0                       # What write queue length does an incoming req see
system.mem_ctrl.wrQLenPdf::5                        0                       # What write queue length does an incoming req see
system.mem_ctrl.wrQLenPdf::6                        0                       # What write queue length does an incoming req see
system.mem_ctrl.wrQLenPdf::7                        0                       # What write queue length does an incoming req see
system.mem_ctrl.wrQLenPdf::8                        0                       # What write queue length does an incoming req see
system.mem_ctrl.wrQLenPdf::9                        0                       # What write queue length does an incoming req see
system.mem_ctrl.wrQLenPdf::10                       0                       # What write queue length does an incoming req see
system.mem_ctrl.wrQLenPdf::11                       0                       # What write queue length does an incoming req see
system.mem_ctrl.wrQLenPdf::12                       0                       # What write queue length does an incoming req see
system.mem_ctrl.wrQLenPdf::13                       0                       # What write queue length does an incoming req see
system.mem_ctrl.wrQLenPdf::14                       0                       # What write queue length does an incoming req see
system.mem_ctrl.wrQLenPdf::15                       0                       # What write queue length does an incoming req see
system.mem_ctrl.wrQLenPdf::16                       0                       # What write queue length does an incoming req see
system.mem_ctrl.wrQLenPdf::17                       0                       # What write queue length does an incoming req see
system.mem_ctrl.wrQLenPdf::18                       0                       # What write queue length does an incoming req see
system.mem_ctrl.wrQLenPdf::19                       0                       # What write queue length does an incoming req see
system.mem_ctrl.wrQLenPdf::20                       0                       # What write queue length does an incoming req see
system.mem_ctrl.wrQLenPdf::21                       0                       # What write queue length does an incoming req see
system.mem_ctrl.wrQLenPdf::22                       0                       # What write queue length does an incoming req see
system.mem_ctrl.wrQLenPdf::23                       0                       # What write queue length does an incoming req see
system.mem_ctrl.wrQLenPdf::24                       0                       # What write queue length does an incoming req see
system.mem_ctrl.wrQLenPdf::25                       0                       # What write queue length does an incoming req see
system.mem_ctrl.wrQLenPdf::26                       0                       # What write queue length does an incoming req see
system.mem_ctrl.wrQLenPdf::27                       0                       # What write queue length does an incoming req see
system.mem_ctrl.wrQLenPdf::28                       0                       # What write queue length does an incoming req see
system.mem_ctrl.wrQLenPdf::29                       0                       # What write queue length does an incoming req see
system.mem_ctrl.wrQLenPdf::30                       0                       # What write queue length does an incoming req see
system.mem_ctrl.wrQLenPdf::31                       0                       # What write queue length does an incoming req see
system.mem_ctrl.wrQLenPdf::32                       0                       # What write queue length does an incoming req see
system.mem_ctrl.wrQLenPdf::33                       0                       # What write queue length does an incoming req see
system.mem_ctrl.wrQLenPdf::34                       0                       # What write queue length does an incoming req see
system.mem_ctrl.wrQLenPdf::35                       0                       # What write queue length does an incoming req see
system.mem_ctrl.wrQLenPdf::36                       0                       # What write queue length does an incoming req see
system.mem_ctrl.wrQLenPdf::37                       0                       # What write queue length does an incoming req see
system.mem_ctrl.wrQLenPdf::38                       0                       # What write queue length does an incoming req see
system.mem_ctrl.wrQLenPdf::39                       0                       # What write queue length does an incoming req see
system.mem_ctrl.wrQLenPdf::40                       0                       # What write queue length does an incoming req see
system.mem_ctrl.wrQLenPdf::41                       0                       # What write queue length does an incoming req see
system.mem_ctrl.wrQLenPdf::42                       0                       # What write queue length does an incoming req see
system.mem_ctrl.wrQLenPdf::43                       0                       # What write queue length does an incoming req see
system.mem_ctrl.wrQLenPdf::44                       0                       # What write queue length does an incoming req see
system.mem_ctrl.wrQLenPdf::45                       0                       # What write queue length does an incoming req see
system.mem_ctrl.wrQLenPdf::46                       0                       # What write queue length does an incoming req see
system.mem_ctrl.wrQLenPdf::47                       0                       # What write queue length does an incoming req see
system.mem_ctrl.wrQLenPdf::48                       0                       # What write queue length does an incoming req see
system.mem_ctrl.wrQLenPdf::49                       0                       # What write queue length does an incoming req see
system.mem_ctrl.wrQLenPdf::50                       0                       # What write queue length does an incoming req see
system.mem_ctrl.wrQLenPdf::51                       0                       # What write queue length does an incoming req see
system.mem_ctrl.wrQLenPdf::52                       0                       # What write queue length does an incoming req see
system.mem_ctrl.wrQLenPdf::53                       0                       # What write queue length does an incoming req see
system.mem_ctrl.wrQLenPdf::54                       0                       # What write queue length does an incoming req see
system.mem_ctrl.wrQLenPdf::55                       0                       # What write queue length does an incoming req see
system.mem_ctrl.wrQLenPdf::56                       0                       # What write queue length does an incoming req see
system.mem_ctrl.wrQLenPdf::57                       0                       # What write queue length does an incoming req see
system.mem_ctrl.wrQLenPdf::58                       0                       # What write queue length does an incoming req see
system.mem_ctrl.wrQLenPdf::59                       0                       # What write queue length does an incoming req see
system.mem_ctrl.wrQLenPdf::60                       0                       # What write queue length does an incoming req see
system.mem_ctrl.wrQLenPdf::61                       0                       # What write queue length does an incoming req see
system.mem_ctrl.wrQLenPdf::62                       0                       # What write queue length does an incoming req see
system.mem_ctrl.wrQLenPdf::63                       0                       # What write queue length does an incoming req see
system.mem_ctrl.bytesPerActivate::samples          538                       # Bytes accessed per row activation
system.mem_ctrl.bytesPerActivate::mean     418.736059                       # Bytes accessed per row activation
system.mem_ctrl.bytesPerActivate::gmean    256.682075                       # Bytes accessed per row activation
system.mem_ctrl.bytesPerActivate::stdev    370.817981                       # Bytes accessed per row activation
system.mem_ctrl.bytesPerActivate::0-127           140     26.02%     26.02% # Bytes accessed per row activation
system.mem_ctrl.bytesPerActivate::128-255          108     20.07%     46.10% # Bytes accessed per row activation
system.mem_ctrl.bytesPerActivate::256-383           66     12.27%     58.36% # Bytes accessed per row activation
system.mem_ctrl.bytesPerActivate::384-511           42      7.81%     66.17% # Bytes accessed per row activation
system.mem_ctrl.bytesPerActivate::512-639           25      4.65%     70.82% # Bytes accessed per row activation
system.mem_ctrl.bytesPerActivate::640-767           22      4.09%     74.91% # Bytes accessed per row activation
system.mem_ctrl.bytesPerActivate::768-895           12      2.23%     77.14% # Bytes accessed per row activation
system.mem_ctrl.bytesPerActivate::896-1023           11      2.04%     79.18% # Bytes accessed per row activation
system.mem_ctrl.bytesPerActivate::1024-1151          112     20.82%    100.00% # Bytes accessed per row activation
system.mem_ctrl.bytesPerActivate::total           538                       # Bytes accessed per row activation
system.mem_ctrl.totQLat                      41477374                       # Total ticks spent queuing
system.mem_ctrl.totMemAccLat                101165422                       # Total ticks spent from burst creation until serviced by the DRAM
system.mem_ctrl.totBusLat                    13297088                       # Total ticks spent in databus transfers
system.mem_ctrl.avgQLat                      11703.55                       # Average queueing delay per DRAM burst
system.mem_ctrl.avgBusLat                     3752.00                       # Average bus latency per DRAM burst
system.mem_ctrl.avgMemAccLat                 28545.55                       # Average memory access latency per DRAM burst
system.mem_ctrl.avgRdBW                        609.67                       # Average DRAM read bandwidth in MiByte/s
system.mem_ctrl.avgWrBW                          0.00                       # Average achieved write bandwidth in MiByte/s
system.mem_ctrl.avgRdBWSys                     609.67                       # Average system read bandwidth in MiByte/s
system.mem_ctrl.avgWrBWSys                       0.00                       # Average system write bandwidth in MiByte/s
system.mem_ctrl.peakBW                       17057.00                       # Theoretical peak bandwidth in MiByte/s
system.mem_ctrl.busUtil                          3.57                       # Data bus utilization in percentage
system.mem_ctrl.busUtilRead                      3.57                       # Data bus utilization in percentage for reads
system.mem_ctrl.busUtilWrite                     0.00                       # Data bus utilization in percentage for writes
system.mem_ctrl.avgRdQLen                        1.05                       # Average read queue length when enqueuing
system.mem_ctrl.avgWrQLen                        0.00                       # Average write queue length when enqueuing
system.mem_ctrl.readRowHits                      3001                       # Number of row buffer hits during reads
system.mem_ctrl.writeRowHits                        0                       # Number of row buffer hits during writes
system.mem_ctrl.readRowHitRate                  84.68                       # Row buffer hit rate for reads
system.mem_ctrl.writeRowHitRate                   nan                       # Row buffer hit rate for writes
system.mem_ctrl.avgGap                      104956.92                       # Average gap between requests
system.mem_ctrl.pageHitRate                     84.68                       # Row buffer hit rate, read and write combined
system.mem_ctrl_0.actEnergy              3150149.184000                       # Energy for activate commands per rank (pJ)
system.mem_ctrl_0.preEnergy              1544480.784000                       # Energy for precharge commands per rank (pJ)
system.mem_ctrl_0.readEnergy             12515636.448000                       # Energy for read commands per rank (pJ)
system.mem_ctrl_0.writeEnergy                       0                       # Energy for write commands per rank (pJ)
system.mem_ctrl_0.refreshEnergy          29651995.968000                       # Energy for refresh commands per rank (pJ)
system.mem_ctrl_0.actBackEnergy          31793472.480000                       # Energy for active background per rank (pJ)
system.mem_ctrl_0.preBackEnergy          867094.704000                       # Energy for precharge background per rank (pJ)
system.mem_ctrl_0.actPowerDownEnergy     136447213.056000                       # Energy for active power-down per rank (pJ)
system.mem_ctrl_0.prePowerDownEnergy     16984324.728000                       # Energy for precharge power-down per rank (pJ)
system.mem_ctrl_0.selfRefreshEnergy      5028595.488000                       # Energy for self refresh per rank (pJ)
system.mem_ctrl_0.totalEnergy            237982962.840000                       # Total energy per rank (pJ)
system.mem_ctrl_0.averagePower             639.681865                       # Core power per rank (mW)
system.mem_ctrl_0.totalIdleTime             309669557                       # Total Idle time Per DRAM Rank
system.mem_ctrl_0.memoryStateTime::IDLE        601992                       # Time in different power states
system.mem_ctrl_0.memoryStateTime::REF       11972000                       # Time in different power states
system.mem_ctrl_0.memoryStateTime::SREF      18526886                       # Time in different power states
system.mem_ctrl_0.memoryStateTime::PRE_PDN     32916459                       # Time in different power states
system.mem_ctrl_0.memoryStateTime::ACT       49582451                       # Time in different power states
system.mem_ctrl_0.memoryStateTime::ACT_PDN    258433473                       # Time in different power states
system.mem_ctrl_1.actEnergy              2570690.304000                       # Energy for activate commands per rank (pJ)
system.mem_ctrl_1.preEnergy              1253265.552000                       # Energy for precharge commands per rank (pJ)
system.mem_ctrl_1.readEnergy             10940426.784000                       # Energy for read commands per rank (pJ)
system.mem_ctrl_1.writeEnergy                       0                       # Energy for write commands per rank (pJ)
system.mem_ctrl_1.refreshEnergy          27718170.144000                       # Energy for refresh commands per rank (pJ)
system.mem_ctrl_1.actBackEnergy          27749146.656000                       # Energy for active background per rank (pJ)
system.mem_ctrl_1.preBackEnergy          2524653.264000                       # Energy for precharge background per rank (pJ)
system.mem_ctrl_1.actPowerDownEnergy     125742576.960000                       # Energy for active power-down per rank (pJ)
system.mem_ctrl_1.prePowerDownEnergy     13274403.408000                       # Energy for precharge power-down per rank (pJ)
system.mem_ctrl_1.selfRefreshEnergy      13144261.536000                       # Energy for self refresh per rank (pJ)
system.mem_ctrl_1.totalEnergy            224917594.608000                       # Total energy per rank (pJ)
system.mem_ctrl_1.averagePower             604.563052                       # Core power per rank (mW)
system.mem_ctrl_1.totalIdleTime             313771502                       # Total Idle time Per DRAM Rank
system.mem_ctrl_1.memoryStateTime::IDLE       4175103                       # Time in different power states
system.mem_ctrl_1.memoryStateTime::REF       11192000                       # Time in different power states
system.mem_ctrl_1.memoryStateTime::SREF      49918412                       # Time in different power states
system.mem_ctrl_1.memoryStateTime::PRE_PDN     25729158                       # Time in different power states
system.mem_ctrl_1.memoryStateTime::ACT       42859556                       # Time in different power states
system.mem_ctrl_1.memoryStateTime::ACT_PDN    238159032                       # Time in different power states
system.pwrStateResidencyTicks::UNDEFINED    372033261                       # Cumulative time (in ticks) in various power states
system.cpu.branchPred.lookups                      79                       # Number of BP lookups
system.cpu.branchPred.condPredicted                79                       # Number of conditional branches predicted
system.cpu.branchPred.condIncorrect                31                       # Number of conditional branches incorrect
system.cpu.branchPred.BTBLookups                   34                       # Number of BTB lookups
system.cpu.branchPred.BTBHits                       0                       # Number of BTB hits
system.cpu.branchPred.BTBCorrect                    0                       # Number of correct BTB predictions (this stat may not work properly.
system.cpu.branchPred.BTBHitPct              0.000000                       # BTB Hit Percentage
system.cpu.branchPred.usedRAS                       0                       # Number of times the RAS was used to get a target.
system.cpu.branchPred.RASInCorrect                  0                       # Number of incorrect RAS predictions.
system.cpu.branchPred.indirectLookups              34                       # Number of indirect predictor lookups.
system.cpu.branchPred.indirectHits                  0                       # Number of indirect target hits.
system.cpu.branchPred.indirectMisses               34                       # Number of indirect misses.
system.cpu.branchPredindirectMispredicted           11                       # Number of mispredicted indirect branches.
system.cpu.dtb.walker.pwrStateResidencyTicks::UNDEFINED    372033261                       # Cumulative time (in ticks) in various power states
system.cpu.dtb.rdAccesses                       67473                       # TLB accesses on read requests
system.cpu.dtb.wrAccesses                       17122                       # TLB accesses on write requests
system.cpu.dtb.rdMisses                          1693                       # TLB misses on read requests
system.cpu.dtb.wrMisses                            23                       # TLB misses on write requests
system.cpu.apic_clk_domain.clock                 5328                       # Clock period in ticks
system.cpu.interrupts.pwrStateResidencyTicks::UNDEFINED    372033261                       # Cumulative time (in ticks) in various power states
system.cpu.itb.walker.pwrStateResidencyTicks::UNDEFINED    372033261                       # Cumulative time (in ticks) in various power states
system.cpu.itb.rdAccesses                           0                       # TLB accesses on read requests
system.cpu.itb.wrAccesses                       69775                       # TLB accesses on write requests
system.cpu.itb.rdMisses                             0                       # TLB misses on read requests
system.cpu.itb.wrMisses                            89                       # TLB misses on write requests
system.cpu.workload.numSyscalls                    32                       # Number of system calls
system.cpu.pwrStateResidencyTicks::ON       372033261                       # Cumulative time (in ticks) in various power states
system.cpu.numCycles                          1117217                       # number of cpu cycles simulated
system.cpu.numWorkItemsStarted                      0                       # number of work items this cpu started
system.cpu.numWorkItemsCompleted                    0                       # number of work items this cpu completed
system.cpu.committedInsts                      180286                       # Number of instructions committed
system.cpu.committedOps                        330274                       # Number of ops (including micro ops) committed
system.cpu.discardedOps                         73834                       # Number of ops (including micro ops) which were discarded before commit
system.cpu.numFetchSuspends                         0                       # Number of times Execute suspended instruction fetching
system.cpu.cpi                               6.196915                       # CPI: cycles per instruction
system.cpu.ipc                               0.161371                       # IPC: instructions per cycle
system.cpu.op_class_0::No_OpClass                1287      0.39%      0.39% # Class of committed instruction
system.cpu.op_class_0::IntAlu                  253310     76.70%     77.09% # Class of committed instruction
system.cpu.op_class_0::IntMult                     61      0.02%     77.11% # Class of committed instruction
system.cpu.op_class_0::IntDiv                    1131      0.34%     77.45% # Class of committed instruction
system.cpu.op_class_0::FloatAdd                  2227      0.67%     78.12% # Class of committed instruction
system.cpu.op_class_0::FloatCmp                     0      0.00%     78.12% # Class of committed instruction
system.cpu.op_class_0::FloatCvt                     0      0.00%     78.12% # Class of committed instruction
system.cpu.op_class_0::FloatMult                    0      0.00%     78.12% # Class of committed instruction
system.cpu.op_class_0::FloatMultAcc                 0      0.00%     78.12% # Class of committed instruction
system.cpu.op_class_0::FloatDiv                     0      0.00%     78.12% # Class of committed instruction
system.cpu.op_class_0::FloatMisc                    0      0.00%     78.12% # Class of committed instruction
system.cpu.op_class_0::FloatSqrt                    0      0.00%     78.12% # Class of committed instruction
system.cpu.op_class_0::SimdAdd                      0      0.00%     78.12% # Class of committed instruction
system.cpu.op_class_0::SimdAddAcc                   0      0.00%     78.12% # Class of committed instruction
system.cpu.op_class_0::SimdAlu                      0      0.00%     78.12% # Class of committed instruction
system.cpu.op_class_0::SimdCmp                      0      0.00%     78.12% # Class of committed instruction
system.cpu.op_class_0::SimdCvt                      0      0.00%     78.12% # Class of committed instruction
system.cpu.op_class_0::SimdMisc                     0      0.00%     78.12% # Class of committed instruction
system.cpu.op_class_0::SimdMult                     0      0.00%     78.12% # Class of committed instruction
system.cpu.op_class_0::SimdMultAcc                  0      0.00%     78.12% # Class of committed instruction
system.cpu.op_class_0::SimdShift                    0      0.00%     78.12% # Class of committed instruction
system.cpu.op_class_0::SimdShiftAcc                 0      0.00%     78.12% # Class of committed instruction
system.cpu.op_class_0::SimdSqrt                     0      0.00%     78.12% # Class of committed instruction
system.cpu.op_class_0::SimdFloatAdd                 0      0.00%     78.12% # Class of committed instruction
system.cpu.op_class_0::SimdFloatAlu                 0      0.00%     78.12% # Class of committed instruction
system.cpu.op_class_0::SimdFloatCmp                 0      0.00%     78.12% # Class of committed instruction
system.cpu.op_class_0::SimdFloatCvt                 0      0.00%     78.12% # Class of committed instruction
system.cpu.op_class_0::SimdFloatDiv                 0      0.00%     78.12% # Class of committed instruction
system.cpu.op_class_0::SimdFloatMisc                0      0.00%     78.12% # Class of committed instruction
system.cpu.op_class_0::SimdFloatMult                0      0.00%     78.12% # Class of committed instruction
system.cpu.op_class_0::SimdFloatMultAcc             0      0.00%     78.12% # Class of committed instruction
system.cpu.op_class_0::SimdFloatSqrt                0      0.00%     78.12% # Class of committed instruction
system.cpu.op_class_0::MemRead                  54608     16.53%     94.66% # Class of committed instruction
system.cpu.op_class_0::MemWrite                 16484      4.99%     99.65% # Class of committed instruction
system.cpu.op_class_0::FloatMemRead               782      0.24%     99.88% # Class of committed instruction
system.cpu.op_class_0::FloatMemWrite              384      0.12%    100.00% # Class of committed instruction
system.cpu.op_class_0::IprAccess                    0      0.00%    100.00% # Class of committed instruction
system.cpu.op_class_0::InstPrefetch                 0      0.00%    100.00% # Class of committed instruction
system.cpu.op_class_0::total                   330274                       # Class of committed instruction
system.cpu.tickCycles                          490769                       # Number of cycles that the object actually ticked
system.cpu.idleCycles                          626448                       # Total number of cycles that the object has spent stopped
system.cpu.dcache.tags.pwrStateResidencyTicks::UNDEFINED    372033261                       # Cumulative time (in ticks) in various power states
system.cpu.dcache.tags.replacements              1695                       # number of replacements
system.cpu.dcache.tags.tagsinuse           798.214095                       # Cycle average of tags in use
system.cpu.dcache.tags.total_refs               79364                       # Total number of references to valid blocks.
system.cpu.dcache.tags.sampled_refs              2719                       # Sample count of references to valid blocks.
system.cpu.dcache.tags.avg_refs             29.188672                       # Average number of references to valid blocks.
system.cpu.dcache.tags.warmup_cycle         249527556                       # Cycle when the warmup percentage was hit.
system.cpu.dcache.tags.occ_blocks::cpu.data   798.214095                       # Average occupied blocks per requestor
system.cpu.dcache.tags.occ_percent::cpu.data     0.779506                       # Average percentage of cache occupancy
system.cpu.dcache.tags.occ_percent::total     0.779506                       # Average percentage of cache occupancy
system.cpu.dcache.tags.occ_task_id_blocks::1024         1024                       # Occupied blocks per task id
system.cpu.dcache.tags.age_task_id_blocks_1024::0           35                       # Occupied blocks per task id
system.cpu.dcache.tags.age_task_id_blocks_1024::1          445                       # Occupied blocks per task id
system.cpu.dcache.tags.age_task_id_blocks_1024::2          544                       # Occupied blocks per task id
system.cpu.dcache.tags.occ_task_id_percent::1024            1                       # Percentage of cache occupancy per task id
system.cpu.dcache.tags.tag_accesses            167683                       # Number of tag accesses
system.cpu.dcache.tags.data_accesses           167683                       # Number of data accesses
system.cpu.dcache.pwrStateResidencyTicks::UNDEFINED    372033261                       # Cumulative time (in ticks) in various power states
system.cpu.dcache.ReadReq_hits::cpu.data        63453                       # number of ReadReq hits
system.cpu.dcache.ReadReq_hits::total           63453                       # number of ReadReq hits
system.cpu.dcache.WriteReq_hits::cpu.data        15911                       # number of WriteReq hits
system.cpu.dcache.WriteReq_hits::total          15911                       # number of WriteReq hits
system.cpu.dcache.demand_hits::cpu.data         79364                       # number of demand (read+write) hits
system.cpu.dcache.demand_hits::total            79364                       # number of demand (read+write) hits
system.cpu.dcache.overall_hits::cpu.data        79364                       # number of overall hits
system.cpu.dcache.overall_hits::total           79364                       # number of overall hits
system.cpu.dcache.ReadReq_misses::cpu.data         2161                       # number of ReadReq misses
system.cpu.dcache.ReadReq_misses::total          2161                       # number of ReadReq misses
system.cpu.dcache.WriteReq_misses::cpu.data          957                       # number of WriteReq misses
system.cpu.dcache.WriteReq_misses::total          957                       # number of WriteReq misses
system.cpu.dcache.demand_misses::cpu.data         3118                       # number of demand (read+write) misses
system.cpu.dcache.demand_misses::total           3118                       # number of demand (read+write) misses
system.cpu.dcache.overall_misses::cpu.data         3118                       # number of overall misses
system.cpu.dcache.overall_misses::total          3118                       # number of overall misses
system.cpu.dcache.ReadReq_miss_latency::cpu.data    131783751                       # number of ReadReq miss cycles
system.cpu.dcache.ReadReq_miss_latency::total    131783751                       # number of ReadReq miss cycles
system.cpu.dcache.WriteReq_miss_latency::cpu.data     57555720                       # number of WriteReq miss cycles
system.cpu.dcache.WriteReq_miss_latency::total     57555720                       # number of WriteReq miss cycles
system.cpu.dcache.demand_miss_latency::cpu.data    189339471                       # number of demand (read+write) miss cycles
system.cpu.dcache.demand_miss_latency::total    189339471                       # number of demand (read+write) miss cycles
system.cpu.dcache.overall_miss_latency::cpu.data    189339471                       # number of overall miss cycles
system.cpu.dcache.overall_miss_latency::total    189339471                       # number of overall miss cycles
system.cpu.dcache.ReadReq_accesses::cpu.data        65614                       # number of ReadReq accesses(hits+misses)
system.cpu.dcache.ReadReq_accesses::total        65614                       # number of ReadReq accesses(hits+misses)
system.cpu.dcache.WriteReq_accesses::cpu.data        16868                       # number of WriteReq accesses(hits+misses)
system.cpu.dcache.WriteReq_accesses::total        16868                       # number of WriteReq accesses(hits+misses)
system.cpu.dcache.demand_accesses::cpu.data        82482                       # number of demand (read+write) accesses
system.cpu.dcache.demand_accesses::total        82482                       # number of demand (read+write) accesses
system.cpu.dcache.overall_accesses::cpu.data        82482                       # number of overall (read+write) accesses
system.cpu.dcache.overall_accesses::total        82482                       # number of overall (read+write) accesses
system.cpu.dcache.ReadReq_miss_rate::cpu.data     0.032935                       # miss rate for ReadReq accesses
system.cpu.dcache.ReadReq_miss_rate::total     0.032935                       # miss rate for ReadReq accesses
system.cpu.dcache.WriteReq_miss_rate::cpu.data     0.056735                       # miss rate for WriteReq accesses
system.cpu.dcache.WriteReq_miss_rate::total     0.056735                       # miss rate for WriteReq accesses
system.cpu.dcache.demand_miss_rate::cpu.data     0.037802                       # miss rate for demand accesses
system.cpu.dcache.demand_miss_rate::total     0.037802                       # miss rate for demand accesses
system.cpu.dcache.overall_miss_rate::cpu.data     0.037802                       # miss rate for overall accesses
system.cpu.dcache.overall_miss_rate::total     0.037802                       # miss rate for overall accesses
system.cpu.dcache.ReadReq_avg_miss_latency::cpu.data 60982.763073                       # average ReadReq miss latency
system.cpu.dcache.ReadReq_avg_miss_latency::total 60982.763073                       # average ReadReq miss latency
system.cpu.dcache.WriteReq_avg_miss_latency::cpu.data 60141.818182                       # average WriteReq miss latency
system.cpu.dcache.WriteReq_avg_miss_latency::total 60141.818182                       # average WriteReq miss latency
system.cpu.dcache.demand_avg_miss_latency::cpu.data 60724.653945                       # average overall miss latency
system.cpu.dcache.demand_avg_miss_latency::total 60724.653945                       # average overall miss latency
system.cpu.dcache.overall_avg_miss_latency::cpu.data 60724.653945                       # average overall miss latency
system.cpu.dcache.overall_avg_miss_latency::total 60724.653945                       # average overall miss latency
system.cpu.dcache.blocked_cycles::no_mshrs            0                       # number of cycles access was blocked
system.cpu.dcache.blocked_cycles::no_targets            0                       # number of cycles access was blocked
system.cpu.dcache.blocked::no_mshrs                 0                       # number of cycles access was blocked
system.cpu.dcache.blocked::no_targets               0                       # number of cycles access was blocked
system.cpu.dcache.avg_blocked_cycles::no_mshrs          nan                       # average number of cycles each access was blocked
system.cpu.dcache.avg_blocked_cycles::no_targets          nan                       # average number of cycles each access was blocked
system.cpu.dcache.writebacks::writebacks          581                       # number of writebacks
system.cpu.dcache.writebacks::total               581                       # number of writebacks
system.cpu.dcache.ReadReq_mshr_hits::cpu.data           22                       # number of ReadReq MSHR hits
system.cpu.dcache.ReadReq_mshr_hits::total           22                       # number of ReadReq MSHR hits
system.cpu.dcache.WriteReq_mshr_hits::cpu.data          377                       # number of WriteReq MSHR hits
system.cpu.dcache.WriteReq_mshr_hits::total          377                       # number of WriteReq MSHR hits
system.cpu.dcache.demand_mshr_hits::cpu.data          399                       # number of demand (read+write) MSHR hits
system.cpu.dcache.demand_mshr_hits::total          399                       # number of demand (read+write) MSHR hits
system.cpu.dcache.overall_mshr_hits::cpu.data          399                       # number of overall MSHR hits
system.cpu.dcache.overall_mshr_hits::total          399                       # number of overall MSHR hits
system.cpu.dcache.ReadReq_mshr_misses::cpu.data         2139                       # number of ReadReq MSHR misses
system.cpu.dcache.ReadReq_mshr_misses::total         2139                       # number of ReadReq MSHR misses
system.cpu.dcache.WriteReq_mshr_misses::cpu.data          580                       # number of WriteReq MSHR misses
system.cpu.dcache.WriteReq_mshr_misses::total          580                       # number of WriteReq MSHR misses
system.cpu.dcache.demand_mshr_misses::cpu.data         2719                       # number of demand (read+write) MSHR misses
system.cpu.dcache.demand_mshr_misses::total         2719                       # number of demand (read+write) MSHR misses
system.cpu.dcache.overall_mshr_misses::cpu.data         2719                       # number of overall MSHR misses
system.cpu.dcache.overall_mshr_misses::total         2719                       # number of overall MSHR misses
system.cpu.dcache.ReadReq_mshr_miss_latency::cpu.data    128785419                       # number of ReadReq MSHR miss cycles
system.cpu.dcache.ReadReq_mshr_miss_latency::total    128785419                       # number of ReadReq MSHR miss cycles
system.cpu.dcache.WriteReq_mshr_miss_latency::cpu.data     35583714                       # number of WriteReq MSHR miss cycles
system.cpu.dcache.WriteReq_mshr_miss_latency::total     35583714                       # number of WriteReq MSHR miss cycles
system.cpu.dcache.demand_mshr_miss_latency::cpu.data    164369133                       # number of demand (read+write) MSHR miss cycles
system.cpu.dcache.demand_mshr_miss_latency::total    164369133                       # number of demand (read+write) MSHR miss cycles
system.cpu.dcache.overall_mshr_miss_latency::cpu.data    164369133                       # number of overall MSHR miss cycles
system.cpu.dcache.overall_mshr_miss_latency::total    164369133                       # number of overall MSHR miss cycles
system.cpu.dcache.ReadReq_mshr_miss_rate::cpu.data     0.032600                       # mshr miss rate for ReadReq accesses
system.cpu.dcache.ReadReq_mshr_miss_rate::total     0.032600                       # mshr miss rate for ReadReq accesses
system.cpu.dcache.WriteReq_mshr_miss_rate::cpu.data     0.034385                       # mshr miss rate for WriteReq accesses
system.cpu.dcache.WriteReq_mshr_miss_rate::total     0.034385                       # mshr miss rate for WriteReq accesses
system.cpu.dcache.demand_mshr_miss_rate::cpu.data     0.032965                       # mshr miss rate for demand accesses
system.cpu.dcache.demand_mshr_miss_rate::total     0.032965                       # mshr miss rate for demand accesses
system.cpu.dcache.overall_mshr_miss_rate::cpu.data     0.032965                       # mshr miss rate for overall accesses
system.cpu.dcache.overall_mshr_miss_rate::total     0.032965                       # mshr miss rate for overall accesses
system.cpu.dcache.ReadReq_avg_mshr_miss_latency::cpu.data 60208.237027                       # average ReadReq mshr miss latency
system.cpu.dcache.ReadReq_avg_mshr_miss_latency::total 60208.237027                       # average ReadReq mshr miss latency
system.cpu.dcache.WriteReq_avg_mshr_miss_latency::cpu.data 61351.231034                       # average WriteReq mshr miss latency
system.cpu.dcache.WriteReq_avg_mshr_miss_latency::total 61351.231034                       # average WriteReq mshr miss latency
system.cpu.dcache.demand_avg_mshr_miss_latency::cpu.data 60452.053328                       # average overall mshr miss latency
system.cpu.dcache.demand_avg_mshr_miss_latency::total 60452.053328                       # average overall mshr miss latency
system.cpu.dcache.overall_avg_mshr_miss_latency::cpu.data 60452.053328                       # average overall mshr miss latency
system.cpu.dcache.overall_avg_mshr_miss_latency::total 60452.053328                       # average overall mshr miss latency
system.cpu.icache.tags.pwrStateResidencyTicks::UNDEFINED    372033261                       # Cumulative time (in ticks) in various power states
system.cpu.icache.tags.replacements               712                       # number of replacements
system.cpu.icache.tags.tagsinuse           444.150797                       # Cycle average of tags in use
system.cpu.icache.tags.total_refs               68557                       # Total number of references to valid blocks.
system.cpu.icache.tags.sampled_refs              1217                       # Sample count of references to valid blocks.
system.cpu.icache.tags.avg_refs             56.332786                       # Average number of references to valid blocks.
system.cpu.icache.tags.warmup_cycle                 0                       # Cycle when the warmup percentage was hit.
system.cpu.icache.tags.occ_blocks::cpu.inst   444.150797                       # Average occupied blocks per requestor
system.cpu.icache.tags.occ_percent::cpu.inst     0.867482                       # Average percentage of cache occupancy
system.cpu.icache.tags.occ_percent::total     0.867482                       # Average percentage of cache occupancy
system.cpu.icache.tags.occ_task_id_blocks::1024          505                       # Occupied blocks per task id
system.cpu.icache.tags.age_task_id_blocks_1024::0          138                       # Occupied blocks per task id
system.cpu.icache.tags.age_task_id_blocks_1024::1          121                       # Occupied blocks per task id
system.cpu.icache.tags.age_task_id_blocks_1024::2          246                       # Occupied blocks per task id
system.cpu.icache.tags.occ_task_id_percent::1024     0.986328                       # Percentage of cache occupancy per task id
system.cpu.icache.tags.tag_accesses            140767                       # Number of tag accesses
system.cpu.icache.tags.data_accesses           140767                       # Number of data accesses
system.cpu.icache.pwrStateResidencyTicks::UNDEFINED    372033261                       # Cumulative time (in ticks) in various power states
system.cpu.icache.ReadReq_hits::cpu.inst        68557                       # number of ReadReq hits
system.cpu.icache.ReadReq_hits::total           68557                       # number of ReadReq hits
system.cpu.icache.demand_hits::cpu.inst         68557                       # number of demand (read+write) hits
system.cpu.icache.demand_hits::total            68557                       # number of demand (read+write) hits
system.cpu.icache.overall_hits::cpu.inst        68557                       # number of overall hits
system.cpu.icache.overall_hits::total           68557                       # number of overall hits
system.cpu.icache.ReadReq_misses::cpu.inst         1218                       # number of ReadReq misses
system.cpu.icache.ReadReq_misses::total          1218                       # number of ReadReq misses
system.cpu.icache.demand_misses::cpu.inst         1218                       # number of demand (read+write) misses
system.cpu.icache.demand_misses::total           1218                       # number of demand (read+write) misses
system.cpu.icache.overall_misses::cpu.inst         1218                       # number of overall misses
system.cpu.icache.overall_misses::total          1218                       # number of overall misses
system.cpu.icache.ReadReq_miss_latency::cpu.inst     75747843                       # number of ReadReq miss cycles
system.cpu.icache.ReadReq_miss_latency::total     75747843                       # number of ReadReq miss cycles
system.cpu.icache.demand_miss_latency::cpu.inst     75747843                       # number of demand (read+write) miss cycles
system.cpu.icache.demand_miss_latency::total     75747843                       # number of demand (read+write) miss cycles
system.cpu.icache.overall_miss_latency::cpu.inst     75747843                       # number of overall miss cycles
system.cpu.icache.overall_miss_latency::total     75747843                       # number of overall miss cycles
system.cpu.icache.ReadReq_accesses::cpu.inst        69775                       # number of ReadReq accesses(hits+misses)
system.cpu.icache.ReadReq_accesses::total        69775                       # number of ReadReq accesses(hits+misses)
system.cpu.icache.demand_accesses::cpu.inst        69775                       # number of demand (read+write) accesses
system.cpu.icache.demand_accesses::total        69775                       # number of demand (read+write) accesses
system.cpu.icache.overall_accesses::cpu.inst        69775                       # number of overall (read+write) accesses
system.cpu.icache.overall_accesses::total        69775                       # number of overall (read+write) accesses
system.cpu.icache.ReadReq_miss_rate::cpu.inst     0.017456                       # miss rate for ReadReq accesses
system.cpu.icache.ReadReq_miss_rate::total     0.017456                       # miss rate for ReadReq accesses
system.cpu.icache.demand_miss_rate::cpu.inst     0.017456                       # miss rate for demand accesses
system.cpu.icache.demand_miss_rate::total     0.017456                       # miss rate for demand accesses
system.cpu.icache.overall_miss_rate::cpu.inst     0.017456                       # miss rate for overall accesses
system.cpu.icache.overall_miss_rate::total     0.017456                       # miss rate for overall accesses
system.cpu.icache.ReadReq_avg_miss_latency::cpu.inst 62190.347291                       # average ReadReq miss latency
system.cpu.icache.ReadReq_avg_miss_latency::total 62190.347291                       # average ReadReq miss latency
system.cpu.icache.demand_avg_miss_latency::cpu.inst 62190.347291                       # average overall miss latency
system.cpu.icache.demand_avg_miss_latency::total 62190.347291                       # average overall miss latency
system.cpu.icache.overall_avg_miss_latency::cpu.inst 62190.347291                       # average overall miss latency
system.cpu.icache.overall_avg_miss_latency::total 62190.347291                       # average overall miss latency
system.cpu.icache.blocked_cycles::no_mshrs            0                       # number of cycles access was blocked
system.cpu.icache.blocked_cycles::no_targets            0                       # number of cycles access was blocked
system.cpu.icache.blocked::no_mshrs                 0                       # number of cycles access was blocked
system.cpu.icache.blocked::no_targets               0                       # number of cycles access was blocked
system.cpu.icache.avg_blocked_cycles::no_mshrs          nan                       # average number of cycles each access was blocked
system.cpu.icache.avg_blocked_cycles::no_targets          nan                       # average number of cycles each access was blocked
system.cpu.icache.ReadReq_mshr_misses::cpu.inst         1218                       # number of ReadReq MSHR misses
system.cpu.icache.ReadReq_mshr_misses::total         1218                       # number of ReadReq MSHR misses
system.cpu.icache.demand_mshr_misses::cpu.inst         1218                       # number of demand (read+write) MSHR misses
system.cpu.icache.demand_mshr_misses::total         1218                       # number of demand (read+write) MSHR misses
system.cpu.icache.overall_mshr_misses::cpu.inst         1218                       # number of overall MSHR misses
system.cpu.icache.overall_mshr_misses::total         1218                       # number of overall MSHR misses
system.cpu.icache.ReadReq_mshr_miss_latency::cpu.inst     74937321                       # number of ReadReq MSHR miss cycles
system.cpu.icache.ReadReq_mshr_miss_latency::total     74937321                       # number of ReadReq MSHR miss cycles
system.cpu.icache.demand_mshr_miss_latency::cpu.inst     74937321                       # number of demand (read+write) MSHR miss cycles
system.cpu.icache.demand_mshr_miss_latency::total     74937321                       # number of demand (read+write) MSHR miss cycles
system.cpu.icache.overall_mshr_miss_latency::cpu.inst     74937321                       # number of overall MSHR miss cycles
system.cpu.icache.overall_mshr_miss_latency::total     74937321                       # number of overall MSHR miss cycles
system.cpu.icache.ReadReq_mshr_miss_rate::cpu.inst     0.017456                       # mshr miss rate for ReadReq accesses
system.cpu.icache.ReadReq_mshr_miss_rate::total     0.017456                       # mshr miss rate for ReadReq accesses
system.cpu.icache.demand_mshr_miss_rate::cpu.inst     0.017456                       # mshr miss rate for demand accesses
system.cpu.icache.demand_mshr_miss_rate::total     0.017456                       # mshr miss rate for demand accesses
system.cpu.icache.overall_mshr_miss_rate::cpu.inst     0.017456                       # mshr miss rate for overall accesses
system.cpu.icache.overall_mshr_miss_rate::total     0.017456                       # mshr miss rate for overall accesses
system.cpu.icache.ReadReq_avg_mshr_miss_latency::cpu.inst 61524.894089                       # average ReadReq mshr miss latency
system.cpu.icache.ReadReq_avg_mshr_miss_latency::total 61524.894089                       # average ReadReq mshr miss latency
system.cpu.icache.demand_avg_mshr_miss_latency::cpu.inst 61524.894089                       # average overall mshr miss latency
system.cpu.icache.demand_avg_mshr_miss_latency::total 61524.894089                       # average overall mshr miss latency
system.cpu.icache.overall_avg_mshr_miss_latency::cpu.inst 61524.894089                       # average overall mshr miss latency
system.cpu.icache.overall_avg_mshr_miss_latency::total 61524.894089                       # average overall mshr miss latency
system.l2bus.snoop_filter.tot_requests           6344                       # Total number of requests made to the snoop filter.
system.l2bus.snoop_filter.hit_single_requests         2409                       # Number of requests hitting in the snoop filter with a single holder of the requested data.
system.l2bus.snoop_filter.hit_multi_requests            4                       # Number of requests hitting in the snoop filter with multiple (>1) holders of the requested data.
system.l2bus.snoop_filter.tot_snoops                0                       # Total number of snoops made to the snoop filter.
system.l2bus.snoop_filter.hit_single_snoops            0                       # Number of snoops hitting in the snoop filter with a single holder of the requested data.
system.l2bus.snoop_filter.hit_multi_snoops            0                       # Number of snoops hitting in the snoop filter with multiple (>1) holders of the requested data.
system.l2bus.pwrStateResidencyTicks::UNDEFINED    372033261                       # Cumulative time (in ticks) in various power states
system.l2bus.trans_dist::ReadResp                3356                       # Transaction distribution
system.l2bus.trans_dist::WritebackDirty           581                       # Transaction distribution
system.l2bus.trans_dist::CleanEvict              1826                       # Transaction distribution
system.l2bus.trans_dist::ReadExReq                580                       # Transaction distribution
system.l2bus.trans_dist::ReadExResp               580                       # Transaction distribution
system.l2bus.trans_dist::ReadSharedReq           3357                       # Transaction distribution
system.l2bus.pkt_count_system.cpu.icache.mem_side::system.l2cache.cpu_side         3147                       # Packet count per connected master and slave (bytes)
system.l2bus.pkt_count_system.cpu.dcache.mem_side::system.l2cache.cpu_side         7133                       # Packet count per connected master and slave (bytes)
system.l2bus.pkt_count::total                   10280                       # Packet count per connected master and slave (bytes)
system.l2bus.pkt_size_system.cpu.icache.mem_side::system.l2cache.cpu_side        77888                       # Cumulative packet size per connected master and slave (bytes)
system.l2bus.pkt_size_system.cpu.dcache.mem_side::system.l2cache.cpu_side       211200                       # Cumulative packet size per connected master and slave (bytes)
system.l2bus.pkt_size::total                   289088                       # Cumulative packet size per connected master and slave (bytes)
system.l2bus.snoops                                 0                       # Total snoops (count)
system.l2bus.snoopTraffic                           0                       # Total snoop traffic (bytes)
system.l2bus.snoop_fanout::samples               3937                       # Request fanout histogram
system.l2bus.snoop_fanout::mean              0.001524                       # Request fanout histogram
system.l2bus.snoop_fanout::stdev             0.039014                       # Request fanout histogram
system.l2bus.snoop_fanout::underflows               0      0.00%      0.00% # Request fanout histogram
system.l2bus.snoop_fanout::0                     3931     99.85%     99.85% # Request fanout histogram
system.l2bus.snoop_fanout::1                        6      0.15%    100.00% # Request fanout histogram
system.l2bus.snoop_fanout::2                        0      0.00%    100.00% # Request fanout histogram
system.l2bus.snoop_fanout::overflows                0      0.00%    100.00% # Request fanout histogram
system.l2bus.snoop_fanout::min_value                0                       # Request fanout histogram
system.l2bus.snoop_fanout::max_value                1                       # Request fanout histogram
system.l2bus.snoop_fanout::total                 3937                       # Request fanout histogram
system.l2bus.reqLayer0.occupancy              2499498                       # Layer occupancy (ticks)
system.l2bus.reqLayer0.utilization                0.7                       # Layer utilization (%)
system.l2bus.respLayer0.occupancy             1215783                       # Layer occupancy (ticks)
system.l2bus.respLayer0.utilization               0.3                       # Layer utilization (%)
system.l2bus.respLayer1.occupancy             2716281                       # Layer occupancy (ticks)
system.l2bus.respLayer1.utilization               0.7                       # Layer utilization (%)
system.l2cache.tags.pwrStateResidencyTicks::UNDEFINED    372033261                       # Cumulative time (in ticks) in various power states
system.l2cache.tags.replacements                    0                       # number of replacements
system.l2cache.tags.tagsinuse             2088.723264                       # Cycle average of tags in use
system.l2cache.tags.total_refs                   2795                       # Total number of references to valid blocks.
system.l2cache.tags.sampled_refs                 3544                       # Sample count of references to valid blocks.
system.l2cache.tags.avg_refs                 0.788657                       # Average number of references to valid blocks.
system.l2cache.tags.warmup_cycle                    0                       # Cycle when the warmup percentage was hit.
system.l2cache.tags.occ_blocks::cpu.inst   699.704776                       # Average occupied blocks per requestor
system.l2cache.tags.occ_blocks::cpu.data  1389.018489                       # Average occupied blocks per requestor
system.l2cache.tags.occ_percent::cpu.inst     0.010677                       # Average percentage of cache occupancy
system.l2cache.tags.occ_percent::cpu.data     0.021195                       # Average percentage of cache occupancy
system.l2cache.tags.occ_percent::total       0.031871                       # Average percentage of cache occupancy
system.l2cache.tags.occ_task_id_blocks::1024         3544                       # Occupied blocks per task id
system.l2cache.tags.age_task_id_blocks_1024::0          128                       # Occupied blocks per task id
system.l2cache.tags.age_task_id_blocks_1024::1          546                       # Occupied blocks per task id
system.l2cache.tags.age_task_id_blocks_1024::2         2870                       # Occupied blocks per task id
system.l2cache.tags.occ_task_id_percent::1024     0.054077                       # Percentage of cache occupancy per task id
system.l2cache.tags.tag_accesses                54264                       # Number of tag accesses
system.l2cache.tags.data_accesses               54264                       # Number of data accesses
system.l2cache.pwrStateResidencyTicks::UNDEFINED    372033261                       # Cumulative time (in ticks) in various power states
system.l2cache.WritebackDirty_hits::writebacks          581                       # number of WritebackDirty hits
system.l2cache.WritebackDirty_hits::total          581                       # number of WritebackDirty hits
system.l2cache.ReadExReq_hits::cpu.data            48                       # number of ReadExReq hits
system.l2cache.ReadExReq_hits::total               48                       # number of ReadExReq hits
system.l2cache.ReadSharedReq_hits::cpu.inst           85                       # number of ReadSharedReq hits
system.l2cache.ReadSharedReq_hits::cpu.data          259                       # number of ReadSharedReq hits
system.l2cache.ReadSharedReq_hits::total          344                       # number of ReadSharedReq hits
system.l2cache.demand_hits::cpu.inst               85                       # number of demand (read+write) hits
system.l2cache.demand_hits::cpu.data              307                       # number of demand (read+write) hits
system.l2cache.demand_hits::total                 392                       # number of demand (read+write) hits
system.l2cache.overall_hits::cpu.inst              85                       # number of overall hits
system.l2cache.overall_hits::cpu.data             307                       # number of overall hits
system.l2cache.overall_hits::total                392                       # number of overall hits
system.l2cache.ReadExReq_misses::cpu.data          532                       # number of ReadExReq misses
system.l2cache.ReadExReq_misses::total            532                       # number of ReadExReq misses
system.l2cache.ReadSharedReq_misses::cpu.inst         1133                       # number of ReadSharedReq misses
system.l2cache.ReadSharedReq_misses::cpu.data         1880                       # number of ReadSharedReq misses
system.l2cache.ReadSharedReq_misses::total         3013                       # number of ReadSharedReq misses
system.l2cache.demand_misses::cpu.inst           1133                       # number of demand (read+write) misses
system.l2cache.demand_misses::cpu.data           2412                       # number of demand (read+write) misses
system.l2cache.demand_misses::total              3545                       # number of demand (read+write) misses
system.l2cache.overall_misses::cpu.inst          1133                       # number of overall misses
system.l2cache.overall_misses::cpu.data          2412                       # number of overall misses
system.l2cache.overall_misses::total             3545                       # number of overall misses
system.l2cache.ReadExReq_miss_latency::cpu.data     34663302                       # number of ReadExReq miss cycles
system.l2cache.ReadExReq_miss_latency::total     34663302                       # number of ReadExReq miss cycles
system.l2cache.ReadSharedReq_miss_latency::cpu.inst     73125135                       # number of ReadSharedReq miss cycles
system.l2cache.ReadSharedReq_miss_latency::cpu.data    124832043                       # number of ReadSharedReq miss cycles
system.l2cache.ReadSharedReq_miss_latency::total    197957178                       # number of ReadSharedReq miss cycles
system.l2cache.demand_miss_latency::cpu.inst     73125135                       # number of demand (read+write) miss cycles
system.l2cache.demand_miss_latency::cpu.data    159495345                       # number of demand (read+write) miss cycles
system.l2cache.demand_miss_latency::total    232620480                       # number of demand (read+write) miss cycles
system.l2cache.overall_miss_latency::cpu.inst     73125135                       # number of overall miss cycles
system.l2cache.overall_miss_latency::cpu.data    159495345                       # number of overall miss cycles
system.l2cache.overall_miss_latency::total    232620480                       # number of overall miss cycles
system.l2cache.WritebackDirty_accesses::writebacks          581                       # number of WritebackDirty accesses(hits+misses)
system.l2cache.WritebackDirty_accesses::total          581                       # number of WritebackDirty accesses(hits+misses)
system.l2cache.ReadExReq_accesses::cpu.data          580                       # number of ReadExReq accesses(hits+misses)
system.l2cache.ReadExReq_accesses::total          580                       # number of ReadExReq accesses(hits+misses)
system.l2cache.ReadSharedReq_accesses::cpu.inst         1218                       # number of ReadSharedReq accesses(hits+misses)
system.l2cache.ReadSharedReq_accesses::cpu.data         2139                       # number of ReadSharedReq accesses(hits+misses)
system.l2cache.ReadSharedReq_accesses::total         3357                       # number of ReadSharedReq accesses(hits+misses)
system.l2cache.demand_accesses::cpu.inst         1218                       # number of demand (read+write) accesses
system.l2cache.demand_accesses::cpu.data         2719                       # number of demand (read+write) accesses
system.l2cache.demand_accesses::total            3937                       # number of demand (read+write) accesses
system.l2cache.overall_accesses::cpu.inst         1218                       # number of overall (read+write) accesses
system.l2cache.overall_accesses::cpu.data         2719                       # number of overall (read+write) accesses
system.l2cache.overall_accesses::total           3937                       # number of overall (read+write) accesses
system.l2cache.ReadExReq_miss_rate::cpu.data     0.917241                       # miss rate for ReadExReq accesses
system.l2cache.ReadExReq_miss_rate::total     0.917241                       # miss rate for ReadExReq accesses
system.l2cache.ReadSharedReq_miss_rate::cpu.inst     0.930213                       # miss rate for ReadSharedReq accesses
system.l2cache.ReadSharedReq_miss_rate::cpu.data     0.878915                       # miss rate for ReadSharedReq accesses
system.l2cache.ReadSharedReq_miss_rate::total     0.897528                       # miss rate for ReadSharedReq accesses
system.l2cache.demand_miss_rate::cpu.inst     0.930213                       # miss rate for demand accesses
system.l2cache.demand_miss_rate::cpu.data     0.887091                       # miss rate for demand accesses
system.l2cache.demand_miss_rate::total       0.900432                       # miss rate for demand accesses
system.l2cache.overall_miss_rate::cpu.inst     0.930213                       # miss rate for overall accesses
system.l2cache.overall_miss_rate::cpu.data     0.887091                       # miss rate for overall accesses
system.l2cache.overall_miss_rate::total      0.900432                       # miss rate for overall accesses
system.l2cache.ReadExReq_avg_miss_latency::cpu.data 65156.582707                       # average ReadExReq miss latency
system.l2cache.ReadExReq_avg_miss_latency::total 65156.582707                       # average ReadExReq miss latency
system.l2cache.ReadSharedReq_avg_miss_latency::cpu.inst 64541.160635                       # average ReadSharedReq miss latency
system.l2cache.ReadSharedReq_avg_miss_latency::cpu.data 66400.022872                       # average ReadSharedReq miss latency
system.l2cache.ReadSharedReq_avg_miss_latency::total 65701.021573                       # average ReadSharedReq miss latency
system.l2cache.demand_avg_miss_latency::cpu.inst 64541.160635                       # average overall miss latency
system.l2cache.demand_avg_miss_latency::cpu.data 66125.764925                       # average overall miss latency
system.l2cache.demand_avg_miss_latency::total 65619.317348                       # average overall miss latency
system.l2cache.overall_avg_miss_latency::cpu.inst 64541.160635                       # average overall miss latency
system.l2cache.overall_avg_miss_latency::cpu.data 66125.764925                       # average overall miss latency
system.l2cache.overall_avg_miss_latency::total 65619.317348                       # average overall miss latency
system.l2cache.blocked_cycles::no_mshrs             0                       # number of cycles access was blocked
system.l2cache.blocked_cycles::no_targets            0                       # number of cycles access was blocked
system.l2cache.blocked::no_mshrs                    0                       # number of cycles access was blocked
system.l2cache.blocked::no_targets                  0                       # number of cycles access was blocked
system.l2cache.avg_blocked_cycles::no_mshrs          nan                       # average number of cycles each access was blocked
system.l2cache.avg_blocked_cycles::no_targets          nan                       # average number of cycles each access was blocked
system.l2cache.ReadExReq_mshr_misses::cpu.data          532                       # number of ReadExReq MSHR misses
system.l2cache.ReadExReq_mshr_misses::total          532                       # number of ReadExReq MSHR misses
system.l2cache.ReadSharedReq_mshr_misses::cpu.inst         1133                       # number of ReadSharedReq MSHR misses
system.l2cache.ReadSharedReq_mshr_misses::cpu.data         1880                       # number of ReadSharedReq MSHR misses
system.l2cache.ReadSharedReq_mshr_misses::total         3013                       # number of ReadSharedReq MSHR misses
system.l2cache.demand_mshr_misses::cpu.inst         1133                       # number of demand (read+write) MSHR misses
system.l2cache.demand_mshr_misses::cpu.data         2412                       # number of demand (read+write) MSHR misses
system.l2cache.demand_mshr_misses::total         3545                       # number of demand (read+write) MSHR misses
system.l2cache.overall_mshr_misses::cpu.inst         1133                       # number of overall MSHR misses
system.l2cache.overall_mshr_misses::cpu.data         2412                       # number of overall MSHR misses
system.l2cache.overall_mshr_misses::total         3545                       # number of overall MSHR misses
system.l2cache.ReadExReq_mshr_miss_latency::cpu.data     31120182                       # number of ReadExReq MSHR miss cycles
system.l2cache.ReadExReq_mshr_miss_latency::total     31120182                       # number of ReadExReq MSHR miss cycles
system.l2cache.ReadSharedReq_mshr_miss_latency::cpu.inst     65586015                       # number of ReadSharedReq MSHR miss cycles
system.l2cache.ReadSharedReq_mshr_miss_latency::cpu.data    112311243                       # number of ReadSharedReq MSHR miss cycles
system.l2cache.ReadSharedReq_mshr_miss_latency::total    177897258                       # number of ReadSharedReq MSHR miss cycles
system.l2cache.demand_mshr_miss_latency::cpu.inst     65586015                       # number of demand (read+write) MSHR miss cycles
system.l2cache.demand_mshr_miss_latency::cpu.data    143431425                       # number of demand (read+write) MSHR miss cycles
system.l2cache.demand_mshr_miss_latency::total    209017440                       # number of demand (read+write) MSHR miss cycles
system.l2cache.overall_mshr_miss_latency::cpu.inst     65586015                       # number of overall MSHR miss cycles
system.l2cache.overall_mshr_miss_latency::cpu.data    143431425                       # number of overall MSHR miss cycles
system.l2cache.overall_mshr_miss_latency::total    209017440                       # number of overall MSHR miss cycles
system.l2cache.ReadExReq_mshr_miss_rate::cpu.data     0.917241                       # mshr miss rate for ReadExReq accesses
system.l2cache.ReadExReq_mshr_miss_rate::total     0.917241                       # mshr miss rate for ReadExReq accesses
system.l2cache.ReadSharedReq_mshr_miss_rate::cpu.inst     0.930213                       # mshr miss rate for ReadSharedReq accesses
system.l2cache.ReadSharedReq_mshr_miss_rate::cpu.data     0.878915                       # mshr miss rate for ReadSharedReq accesses
system.l2cache.ReadSharedReq_mshr_miss_rate::total     0.897528                       # mshr miss rate for ReadSharedReq accesses
system.l2cache.demand_mshr_miss_rate::cpu.inst     0.930213                       # mshr miss rate for demand accesses
system.l2cache.demand_mshr_miss_rate::cpu.data     0.887091                       # mshr miss rate for demand accesses
system.l2cache.demand_mshr_miss_rate::total     0.900432                       # mshr miss rate for demand accesses
system.l2cache.overall_mshr_miss_rate::cpu.inst     0.930213                       # mshr miss rate for overall accesses
system.l2cache.overall_mshr_miss_rate::cpu.data     0.887091                       # mshr miss rate for overall accesses
system.l2cache.overall_mshr_miss_rate::total     0.900432                       # mshr miss rate for overall accesses
system.l2cache.ReadExReq_avg_mshr_miss_latency::cpu.data 58496.582707                       # average ReadExReq mshr miss latency
system.l2cache.ReadExReq_avg_mshr_miss_latency::total 58496.582707                       # average ReadExReq mshr miss latency
system.l2cache.ReadSharedReq_avg_mshr_miss_latency::cpu.inst 57887.038835                       # average ReadSharedReq mshr miss latency
system.l2cache.ReadSharedReq_avg_mshr_miss_latency::cpu.data 59740.022872                       # average ReadSharedReq mshr miss latency
system.l2cache.ReadSharedReq_avg_mshr_miss_latency::total 59043.231995                       # average ReadSharedReq mshr miss latency
system.l2cache.demand_avg_mshr_miss_latency::cpu.inst 57887.038835                       # average overall mshr miss latency
system.l2cache.demand_avg_mshr_miss_latency::cpu.data 59465.764925                       # average overall mshr miss latency
system.l2cache.demand_avg_mshr_miss_latency::total 58961.196051                       # average overall mshr miss latency
system.l2cache.overall_avg_mshr_miss_latency::cpu.inst 57887.038835                       # average overall mshr miss latency
system.l2cache.overall_avg_mshr_miss_latency::cpu.data 59465.764925                       # average overall mshr miss latency
system.l2cache.overall_avg_mshr_miss_latency::total 58961.196051                       # average overall mshr miss latency
system.membus.snoop_filter.tot_requests          3544                       # Total number of requests made to the snoop filter.
system.membus.snoop_filter.hit_single_requests            0                       # Number of requests hitting in the snoop filter with a single holder of the requested data.
system.membus.snoop_filter.hit_multi_requests            0                       # Number of requests hitting in the snoop filter with multiple (>1) holders of the requested data.
system.membus.snoop_filter.tot_snoops               0                       # Total number of snoops made to the snoop filter.
system.membus.snoop_filter.hit_single_snoops            0                       # Number of snoops hitting in the snoop filter with a single holder of the requested data.
system.membus.snoop_filter.hit_multi_snoops            0                       # Number of snoops hitting in the snoop filter with multiple (>1) holders of the requested data.
system.membus.pwrStateResidencyTicks::UNDEFINED    372033261                       # Cumulative time (in ticks) in various power states
system.membus.trans_dist::ReadResp               3012                       # Transaction distribution
system.membus.trans_dist::ReadExReq               532                       # Transaction distribution
system.membus.trans_dist::ReadExResp              532                       # Transaction distribution
system.membus.trans_dist::ReadSharedReq          3012                       # Transaction distribution
system.membus.pkt_count_system.l2cache.mem_side::system.mem_ctrl.port         7088                       # Packet count per connected master and slave (bytes)
system.membus.pkt_count_system.l2cache.mem_side::total         7088                       # Packet count per connected master and slave (bytes)
system.membus.pkt_count::total                   7088                       # Packet count per connected master and slave (bytes)
system.membus.pkt_size_system.l2cache.mem_side::system.mem_ctrl.port       226816                       # Cumulative packet size per connected master and slave (bytes)
system.membus.pkt_size_system.l2cache.mem_side::total       226816                       # Cumulative packet size per connected master and slave (bytes)
system.membus.pkt_size::total                  226816                       # Cumulative packet size per connected master and slave (bytes)
system.membus.snoops                                0                       # Total snoops (count)
system.membus.snoopTraffic                          0                       # Total snoop traffic (bytes)
system.membus.snoop_fanout::samples              3544                       # Request fanout histogram
system.membus.snoop_fanout::mean                    0                       # Request fanout histogram
system.membus.snoop_fanout::stdev                   0                       # Request fanout histogram
system.membus.snoop_fanout::underflows              0      0.00%      0.00% # Request fanout histogram
system.membus.snoop_fanout::0                    3544    100.00%    100.00% # Request fanout histogram
system.membus.snoop_fanout::1                       0      0.00%    100.00% # Request fanout histogram
system.membus.snoop_fanout::overflows               0      0.00%    100.00% # Request fanout histogram
system.membus.snoop_fanout::min_value               0                       # Request fanout histogram
system.membus.snoop_fanout::max_value               0                       # Request fanout histogram
system.membus.snoop_fanout::total                3544                       # Request fanout histogram
system.membus.reqLayer2.occupancy             1180152                       # Layer occupancy (ticks)
system.membus.reqLayer2.utilization               0.3                       # Layer utilization (%)
system.membus.respLayer0.occupancy            6288066                       # Layer occupancy (ticks)
system.membus.respLayer0.utilization              1.7                       # Layer utilization (%)

---------- End Simulation Statistics   ----------
