
---------- Begin Simulation Statistics ----------
sim_seconds                                  0.000811                       # Number of seconds simulated
sim_ticks                                   811415000                       # Number of ticks simulated
final_tick                                  811415000                       # Number of ticks from beginning of simulation (restored from checkpoints and never reset)
sim_freq                                 1000000000000                       # Frequency of simulated ticks
host_inst_rate                                 149384                       # Simulator instruction rate (inst/s)
host_op_rate                                   273661                       # Simulator op (including micro ops) rate (op/s)
host_tick_rate                              672325721                       # Simulator tick rate (ticks/s)
host_mem_usage                                 683016                       # Number of bytes of host memory used
host_seconds                                     1.21                       # Real time elapsed on the host
sim_insts                                      180286                       # Number of instructions simulated
sim_ops                                        330274                       # Number of ops (including micro ops) simulated
system.clk_domain.voltage_domain.voltage            1                       # Voltage in Volts
system.clk_domain.clock                          1000                       # Clock period in ticks
system.mem_ctrl.pwrStateResidencyTicks::UNDEFINED    811415000                       # Cumulative time (in ticks) in various power states
system.mem_ctrl.bytes_read::cpu.inst            72512                       # Number of bytes read from this memory
system.mem_ctrl.bytes_read::cpu.data           154368                       # Number of bytes read from this memory
system.mem_ctrl.bytes_read::total              226880                       # Number of bytes read from this memory
system.mem_ctrl.bytes_inst_read::cpu.inst        72512                       # Number of instructions bytes read from this memory
system.mem_ctrl.bytes_inst_read::total          72512                       # Number of instructions bytes read from this memory
system.mem_ctrl.num_reads::cpu.inst              1133                       # Number of read requests responded to by this memory
system.mem_ctrl.num_reads::cpu.data              2412                       # Number of read requests responded to by this memory
system.mem_ctrl.num_reads::total                 3545                       # Number of read requests responded to by this memory
system.mem_ctrl.bw_read::cpu.inst            89364875                       # Total read bandwidth from this memory (bytes/s)
system.mem_ctrl.bw_read::cpu.data           190245435                       # Total read bandwidth from this memory (bytes/s)
system.mem_ctrl.bw_read::total              279610310                       # Total read bandwidth from this memory (bytes/s)
system.mem_ctrl.bw_inst_read::cpu.inst       89364875                       # Instruction read bandwidth from this memory (bytes/s)
system.mem_ctrl.bw_inst_read::total          89364875                       # Instruction read bandwidth from this memory (bytes/s)
system.mem_ctrl.bw_total::cpu.inst           89364875                       # Total bandwidth to/from this memory (bytes/s)
system.mem_ctrl.bw_total::cpu.data          190245435                       # Total bandwidth to/from this memory (bytes/s)
system.mem_ctrl.bw_total::total             279610310                       # Total bandwidth to/from this memory (bytes/s)
system.mem_ctrl.readReqs                         3545                       # Number of read requests accepted
system.mem_ctrl.writeReqs                           0                       # Number of write requests accepted
system.mem_ctrl.readBursts                       3545                       # Number of DRAM read bursts, including those serviced by the write queue
system.mem_ctrl.writeBursts                         0                       # Number of DRAM write bursts, including those merged in the write queue
system.mem_ctrl.bytesReadDRAM                  226880                       # Total number of bytes read from DRAM
system.mem_ctrl.bytesReadWrQ                        0                       # Total number of bytes read from write queue
system.mem_ctrl.bytesWritten                        0                       # Total number of bytes written to DRAM
system.mem_ctrl.bytesReadSys                   226880                       # Total read bytes from the system interface side
system.mem_ctrl.bytesWrittenSys                     0                       # Total written bytes from the system interface side
system.mem_ctrl.servicedByWrQ                       0                       # Number of DRAM read bursts serviced by the write queue
system.mem_ctrl.mergedWrBursts                      0                       # Number of DRAM write bursts merged with an existing one
system.mem_ctrl.neitherReadNorWriteReqs             0                       # Number of requests that are neither read nor write
system.mem_ctrl.perBankRdBursts::0                243                       # Per bank write bursts
system.mem_ctrl.perBankRdBursts::1                238                       # Per bank write bursts
system.mem_ctrl.perBankRdBursts::2                210                       # Per bank write bursts
system.mem_ctrl.perBankRdBursts::3                156                       # Per bank write bursts
system.mem_ctrl.perBankRdBursts::4                267                       # Per bank write bursts
system.mem_ctrl.perBankRdBursts::5                273                       # Per bank write bursts
system.mem_ctrl.perBankRdBursts::6                262                       # Per bank write bursts
system.mem_ctrl.perBankRdBursts::7                242                       # Per bank write bursts
system.mem_ctrl.perBankRdBursts::8                221                       # Per bank write bursts
system.mem_ctrl.perBankRdBursts::9                303                       # Per bank write bursts
system.mem_ctrl.perBankRdBursts::10               367                       # Per bank write bursts
system.mem_ctrl.perBankRdBursts::11               252                       # Per bank write bursts
system.mem_ctrl.perBankRdBursts::12                38                       # Per bank write bursts
system.mem_ctrl.perBankRdBursts::13                76                       # Per bank write bursts
system.mem_ctrl.perBankRdBursts::14               139                       # Per bank write bursts
system.mem_ctrl.perBankRdBursts::15               258                       # Per bank write bursts
system.mem_ctrl.perBankWrBursts::0                  0                       # Per bank write bursts
system.mem_ctrl.perBankWrBursts::1                  0                       # Per bank write bursts
system.mem_ctrl.perBankWrBursts::2                  0                       # Per bank write bursts
system.mem_ctrl.perBankWrBursts::3                  0                       # Per bank write bursts
system.mem_ctrl.perBankWrBursts::4                  0                       # Per bank write bursts
system.mem_ctrl.perBankWrBursts::5                  0                       # Per bank write bursts
system.mem_ctrl.perBankWrBursts::6                  0                       # Per bank write bursts
system.mem_ctrl.perBankWrBursts::7                  0                       # Per bank write bursts
system.mem_ctrl.perBankWrBursts::8                  0                       # Per bank write bursts
system.mem_ctrl.perBankWrBursts::9                  0                       # Per bank write bursts
system.mem_ctrl.perBankWrBursts::10                 0                       # Per bank write bursts
system.mem_ctrl.perBankWrBursts::11                 0                       # Per bank write bursts
system.mem_ctrl.perBankWrBursts::12                 0                       # Per bank write bursts
system.mem_ctrl.perBankWrBursts::13                 0                       # Per bank write bursts
system.mem_ctrl.perBankWrBursts::14                 0                       # Per bank write bursts
system.mem_ctrl.perBankWrBursts::15                 0                       # Per bank write bursts
system.mem_ctrl.numRdRetry                          0                       # Number of times read queue was full causing retry
system.mem_ctrl.numWrRetry                          0                       # Number of times write queue was full causing retry
system.mem_ctrl.totGap                      811012000                       # Total gap between requests
system.mem_ctrl.readPktSize::0                      0                       # Read request sizes (log2)
system.mem_ctrl.readPktSize::1                      0                       # Read request sizes (log2)
system.mem_ctrl.readPktSize::2                      0                       # Read request sizes (log2)
system.mem_ctrl.readPktSize::3                      0                       # Read request sizes (log2)
system.mem_ctrl.readPktSize::4                      0                       # Read request sizes (log2)
system.mem_ctrl.readPktSize::5                      0                       # Read request sizes (log2)
system.mem_ctrl.readPktSize::6                   3545                       # Read request sizes (log2)
system.mem_ctrl.writePktSize::0                     0                       # Write request sizes (log2)
system.mem_ctrl.writePktSize::1                     0                       # Write request sizes (log2)
system.mem_ctrl.writePktSize::2                     0                       # Write request sizes (log2)
system.mem_ctrl.writePktSize::3                     0                       # Write request sizes (log2)
system.mem_ctrl.writePktSize::4                     0                       # Write request sizes (log2)
system.mem_ctrl.writePktSize::5                     0                       # Write request sizes (log2)
system.mem_ctrl.writePktSize::6                     0                       # Write request sizes (log2)
system.mem_ctrl.rdQLenPdf::0                     3317                       # What read queue length does an incoming req see
system.mem_ctrl.rdQLenPdf::1                      218                       # What read queue length does an incoming req see
system.mem_ctrl.rdQLenPdf::2                       10                       # What read queue length does an incoming req see
system.mem_ctrl.rdQLenPdf::3                        0                       # What read queue length does an incoming req see
system.mem_ctrl.rdQLenPdf::4                        0                       # What read queue length does an incoming req see
system.mem_ctrl.rdQLenPdf::5                        0                       # What read queue length does an incoming req see
system.mem_ctrl.rdQLenPdf::6                        0                       # What read queue length does an incoming req see
system.mem_ctrl.rdQLenPdf::7                        0                       # What read queue length does an incoming req see
system.mem_ctrl.rdQLenPdf::8                        0                       # What read queue length does an incoming req see
system.mem_ctrl.rdQLenPdf::9                        0                       # What read queue length does an incoming req see
system.mem_ctrl.rdQLenPdf::10                       0                       # What read queue length does an incoming req see
system.mem_ctrl.rdQLenPdf::11                       0                       # What read queue length does an incoming req see
system.mem_ctrl.rdQLenPdf::12                       0                       # What read queue length does an incoming req see
system.mem_ctrl.rdQLenPdf::13                       0                       # What read queue length does an incoming req see
system.mem_ctrl.rdQLenPdf::14                       0                       # What read queue length does an incoming req see
system.mem_ctrl.rdQLenPdf::15                       0                       # What read queue length does an incoming req see
system.mem_ctrl.rdQLenPdf::16                       0                       # What read queue length does an incoming req see
system.mem_ctrl.rdQLenPdf::17                       0                       # What read queue length does an incoming req see
system.mem_ctrl.rdQLenPdf::18                       0                       # What read queue length does an incoming req see
system.mem_ctrl.rdQLenPdf::19                       0                       # What read queue length does an incoming req see
system.mem_ctrl.rdQLenPdf::20                       0                       # What read queue length does an incoming req see
system.mem_ctrl.rdQLenPdf::21                       0                       # What read queue length does an incoming req see
system.mem_ctrl.rdQLenPdf::22                       0                       # What read queue length does an incoming req see
system.mem_ctrl.rdQLenPdf::23                       0                       # What read queue length does an incoming req see
system.mem_ctrl.rdQLenPdf::24                       0                       # What read queue length does an incoming req see
system.mem_ctrl.rdQLenPdf::25                       0                       # What read queue length does an incoming req see
system.mem_ctrl.rdQLenPdf::26                       0                       # What read queue length does an incoming req see
system.mem_ctrl.rdQLenPdf::27                       0                       # What read queue length does an incoming req see
system.mem_ctrl.rdQLenPdf::28                       0                       # What read queue length does an incoming req see
system.mem_ctrl.rdQLenPdf::29                       0                       # What read queue length does an incoming req see
system.mem_ctrl.rdQLenPdf::30                       0                       # What read queue length does an incoming req see
system.mem_ctrl.rdQLenPdf::31                       0                       # What read queue length does an incoming req see
system.mem_ctrl.wrQLenPdf::0                        0                       # What write queue length does an incoming req see
system.mem_ctrl.wrQLenPdf::1                        0                       # What write queue length does an incoming req see
system.mem_ctrl.wrQLenPdf::2                        0                       # What write queue length does an incoming req see
system.mem_ctrl.wrQLenPdf::3                        0                       # What write queue length does an incoming req see
system.mem_ctrl.wrQLenPdf::4                        0                       # What write queue length does an incoming req see
system.mem_ctrl.wrQLenPdf::5                        0                       # What write queue length does an incoming req see
system.mem_ctrl.wrQLenPdf::6                        0                       # What write queue length does an incoming req see
system.mem_ctrl.wrQLenPdf::7                        0                       # What write queue length does an incoming req see
system.mem_ctrl.wrQLenPdf::8                        0                       # What write queue length does an incoming req see
system.mem_ctrl.wrQLenPdf::9                        0                       # What write queue length does an incoming req see
system.mem_ctrl.wrQLenPdf::10                       0                       # What write queue length does an incoming req see
system.mem_ctrl.wrQLenPdf::11                       0                       # What write queue length does an incoming req see
system.mem_ctrl.wrQLenPdf::12                       0                       # What write queue length does an incoming req see
system.mem_ctrl.wrQLenPdf::13                       0                       # What write queue length does an incoming req see
system.mem_ctrl.wrQLenPdf::14                       0                       # What write queue length does an incoming req see
system.mem_ctrl.wrQLenPdf::15                       0                       # What write queue length does an incoming req see
system.mem_ctrl.wrQLenPdf::16                       0                       # What write queue length does an incoming req see
system.mem_ctrl.wrQLenPdf::17                       0                       # What write queue length does an incoming req see
system.mem_ctrl.wrQLenPdf::18                       0                       # What write queue length does an incoming req see
system.mem_ctrl.wrQLenPdf::19                       0                       # What write queue length does an incoming req see
system.mem_ctrl.wrQLenPdf::20                       0                       # What write queue length does an incoming req see
system.mem_ctrl.wrQLenPdf::21                       0                       # What write queue length does an incoming req see
system.mem_ctrl.wrQLenPdf::22                       0                       # What write queue length does an incoming req see
system.mem_ctrl.wrQLenPdf::23                       0                       # What write queue length does an incoming req see
system.mem_ctrl.wrQLenPdf::24                       0                       # What write queue length does an incoming req see
system.mem_ctrl.wrQLenPdf::25                       0                       # What write queue length does an incoming req see
system.mem_ctrl.wrQLenPdf::26                       0                       # What write queue length does an incoming req see
system.mem_ctrl.wrQLenPdf::27                       0                       # What write queue length does an incoming req see
system.mem_ctrl.wrQLenPdf::28                       0                       # What write queue length does an incoming req see
system.mem_ctrl.wrQLenPdf::29                       0                       # What write queue length does an incoming req see
system.mem_ctrl.wrQLenPdf::30                       0                       # What write queue length does an incoming req see
system.mem_ctrl.wrQLenPdf::31                       0                       # What write queue length does an incoming req see
system.mem_ctrl.wrQLenPdf::32                       0                       # What write queue length does an incoming req see
system.mem_ctrl.wrQLenPdf::33                       0                       # What write queue length does an incoming req see
system.mem_ctrl.wrQLenPdf::34                       0                       # What write queue length does an incoming req see
system.mem_ctrl.wrQLenPdf::35                       0                       # What write queue length does an incoming req see
system.mem_ctrl.wrQLenPdf::36                       0                       # What write queue length does an incoming req see
system.mem_ctrl.wrQLenPdf::37                       0                       # What write queue length does an incoming req see
system.mem_ctrl.wrQLenPdf::38                       0                       # What write queue length does an incoming req see
system.mem_ctrl.wrQLenPdf::39                       0                       # What write queue length does an incoming req see
system.mem_ctrl.wrQLenPdf::40                       0                       # What write queue length does an incoming req see
system.mem_ctrl.wrQLenPdf::41                       0                       # What write queue length does an incoming req see
system.mem_ctrl.wrQLenPdf::42                       0                       # What write queue length does an incoming req see
system.mem_ctrl.wrQLenPdf::43                       0                       # What write queue length does an incoming req see
system.mem_ctrl.wrQLenPdf::44                       0                       # What write queue length does an incoming req see
system.mem_ctrl.wrQLenPdf::45                       0                       # What write queue length does an incoming req see
system.mem_ctrl.wrQLenPdf::46                       0                       # What write queue length does an incoming req see
system.mem_ctrl.wrQLenPdf::47                       0                       # What write queue length does an incoming req see
system.mem_ctrl.wrQLenPdf::48                       0                       # What write queue length does an incoming req see
system.mem_ctrl.wrQLenPdf::49                       0                       # What write queue length does an incoming req see
system.mem_ctrl.wrQLenPdf::50                       0                       # What write queue length does an incoming req see
system.mem_ctrl.wrQLenPdf::51                       0                       # What write queue length does an incoming req see
system.mem_ctrl.wrQLenPdf::52                       0                       # What write queue length does an incoming req see
system.mem_ctrl.wrQLenPdf::53                       0                       # What write queue length does an incoming req see
system.mem_ctrl.wrQLenPdf::54                       0                       # What write queue length does an incoming req see
system.mem_ctrl.wrQLenPdf::55                       0                       # What write queue length does an incoming req see
system.mem_ctrl.wrQLenPdf::56                       0                       # What write queue length does an incoming req see
system.mem_ctrl.wrQLenPdf::57                       0                       # What write queue length does an incoming req see
system.mem_ctrl.wrQLenPdf::58                       0                       # What write queue length does an incoming req see
system.mem_ctrl.wrQLenPdf::59                       0                       # What write queue length does an incoming req see
system.mem_ctrl.wrQLenPdf::60                       0                       # What write queue length does an incoming req see
system.mem_ctrl.wrQLenPdf::61                       0                       # What write queue length does an incoming req see
system.mem_ctrl.wrQLenPdf::62                       0                       # What write queue length does an incoming req see
system.mem_ctrl.wrQLenPdf::63                       0                       # What write queue length does an incoming req see
system.mem_ctrl.bytesPerActivate::samples          671                       # Bytes accessed per row activation
system.mem_ctrl.bytesPerActivate::mean     337.645306                       # Bytes accessed per row activation
system.mem_ctrl.bytesPerActivate::gmean    206.386225                       # Bytes accessed per row activation
system.mem_ctrl.bytesPerActivate::stdev    331.964914                       # Bytes accessed per row activation
system.mem_ctrl.bytesPerActivate::0-127           204     30.40%     30.40% # Bytes accessed per row activation
system.mem_ctrl.bytesPerActivate::128-255          170     25.34%     55.74% # Bytes accessed per row activation
system.mem_ctrl.bytesPerActivate::256-383           78     11.62%     67.36% # Bytes accessed per row activation
system.mem_ctrl.bytesPerActivate::384-511           43      6.41%     73.77% # Bytes accessed per row activation
system.mem_ctrl.bytesPerActivate::512-639           46      6.86%     80.63% # Bytes accessed per row activation
system.mem_ctrl.bytesPerActivate::640-767           19      2.83%     83.46% # Bytes accessed per row activation
system.mem_ctrl.bytesPerActivate::768-895           12      1.79%     85.25% # Bytes accessed per row activation
system.mem_ctrl.bytesPerActivate::896-1023           13      1.94%     87.18% # Bytes accessed per row activation
system.mem_ctrl.bytesPerActivate::1024-1151           86     12.82%    100.00% # Bytes accessed per row activation
system.mem_ctrl.bytesPerActivate::total           671                       # Bytes accessed per row activation
system.mem_ctrl.totQLat                      48955000                       # Total ticks spent queuing
system.mem_ctrl.totMemAccLat                115423750                       # Total ticks spent from burst creation until serviced by the DRAM
system.mem_ctrl.totBusLat                    17725000                       # Total ticks spent in databus transfers
system.mem_ctrl.avgQLat                      13809.59                       # Average queueing delay per DRAM burst
system.mem_ctrl.avgBusLat                     5000.00                       # Average bus latency per DRAM burst
system.mem_ctrl.avgMemAccLat                 32559.59                       # Average memory access latency per DRAM burst
system.mem_ctrl.avgRdBW                        279.61                       # Average DRAM read bandwidth in MiByte/s
system.mem_ctrl.avgWrBW                          0.00                       # Average achieved write bandwidth in MiByte/s
system.mem_ctrl.avgRdBWSys                     279.61                       # Average system read bandwidth in MiByte/s
system.mem_ctrl.avgWrBWSys                       0.00                       # Average system write bandwidth in MiByte/s
system.mem_ctrl.peakBW                       12800.00                       # Theoretical peak bandwidth in MiByte/s
system.mem_ctrl.busUtil                          2.18                       # Data bus utilization in percentage
system.mem_ctrl.busUtilRead                      2.18                       # Data bus utilization in percentage for reads
system.mem_ctrl.busUtilWrite                     0.00                       # Data bus utilization in percentage for writes
system.mem_ctrl.avgRdQLen                        1.04                       # Average read queue length when enqueuing
system.mem_ctrl.avgWrQLen                        0.00                       # Average write queue length when enqueuing
system.mem_ctrl.readRowHits                      2872                       # Number of row buffer hits during reads
system.mem_ctrl.writeRowHits                        0                       # Number of row buffer hits during writes
system.mem_ctrl.readRowHitRate                  81.02                       # Row buffer hit rate for reads
system.mem_ctrl.writeRowHitRate                   nan                       # Row buffer hit rate for writes
system.mem_ctrl.avgGap                      228776.30                       # Average gap between requests
system.mem_ctrl.pageHitRate                     81.02                       # Row buffer hit rate, read and write combined
system.mem_ctrl_0.actEnergy                   2706060                       # Energy for activate commands per rank (pJ)
system.mem_ctrl_0.preEnergy                   1434510                       # Energy for precharge commands per rank (pJ)
system.mem_ctrl_0.readEnergy                 13501740                       # Energy for read commands per rank (pJ)
system.mem_ctrl_0.writeEnergy                       0                       # Energy for write commands per rank (pJ)
system.mem_ctrl_0.refreshEnergy          58390800.000000                       # Energy for refresh commands per rank (pJ)
system.mem_ctrl_0.actBackEnergy              35953320                       # Energy for active background per rank (pJ)
system.mem_ctrl_0.preBackEnergy               1617600                       # Energy for precharge background per rank (pJ)
system.mem_ctrl_0.actPowerDownEnergy        249269550                       # Energy for active power-down per rank (pJ)
system.mem_ctrl_0.prePowerDownEnergy         34468320                       # Energy for precharge power-down per rank (pJ)
system.mem_ctrl_0.selfRefreshEnergy          23725320                       # Energy for self refresh per rank (pJ)
system.mem_ctrl_0.totalEnergy               421067220                       # Total energy per rank (pJ)
system.mem_ctrl_0.averagePower             518.929549                       # Core power per rank (mW)
system.mem_ctrl_0.totalIdleTime             727710250                       # Total Idle time Per DRAM Rank
system.mem_ctrl_0.memoryStateTime::IDLE       1422000                       # Time in different power states
system.mem_ctrl_0.memoryStateTime::REF       24718000                       # Time in different power states
system.mem_ctrl_0.memoryStateTime::SREF      91953000                       # Time in different power states
system.mem_ctrl_0.memoryStateTime::PRE_PDN     89767250                       # Time in different power states
system.mem_ctrl_0.memoryStateTime::ACT       56872500                       # Time in different power states
system.mem_ctrl_0.memoryStateTime::ACT_PDN    546682250                       # Time in different power states
system.mem_ctrl_1.actEnergy                   2099160                       # Energy for activate commands per rank (pJ)
system.mem_ctrl_1.preEnergy                   1111935                       # Energy for precharge commands per rank (pJ)
system.mem_ctrl_1.readEnergy                 11809560                       # Energy for read commands per rank (pJ)
system.mem_ctrl_1.writeEnergy                       0                       # Energy for write commands per rank (pJ)
system.mem_ctrl_1.refreshEnergy          52244400.000000                       # Energy for refresh commands per rank (pJ)
system.mem_ctrl_1.actBackEnergy              30624960                       # Energy for active background per rank (pJ)
system.mem_ctrl_1.preBackEnergy               3691200                       # Energy for precharge background per rank (pJ)
system.mem_ctrl_1.actPowerDownEnergy        234232950                       # Energy for active power-down per rank (pJ)
system.mem_ctrl_1.prePowerDownEnergy         21993600                       # Energy for precharge power-down per rank (pJ)
system.mem_ctrl_1.selfRefreshEnergy          40392180                       # Energy for self refresh per rank (pJ)
system.mem_ctrl_1.totalEnergy               398199945                       # Total energy per rank (pJ)
system.mem_ctrl_1.averagePower             490.747577                       # Core power per rank (mW)
system.mem_ctrl_1.totalIdleTime             734625750                       # Total Idle time Per DRAM Rank
system.mem_ctrl_1.memoryStateTime::IDLE       6879000                       # Time in different power states
system.mem_ctrl_1.memoryStateTime::REF       22112000                       # Time in different power states
system.mem_ctrl_1.memoryStateTime::SREF     163699250                       # Time in different power states
system.mem_ctrl_1.memoryStateTime::PRE_PDN     57263500                       # Time in different power states
system.mem_ctrl_1.memoryStateTime::ACT       47732750                       # Time in different power states
system.mem_ctrl_1.memoryStateTime::ACT_PDN    513728500                       # Time in different power states
system.pwrStateResidencyTicks::UNDEFINED    811415000                       # Cumulative time (in ticks) in various power states
system.cpu.branchPred.lookups                      79                       # Number of BP lookups
system.cpu.branchPred.condPredicted                79                       # Number of conditional branches predicted
system.cpu.branchPred.condIncorrect                31                       # Number of conditional branches incorrect
system.cpu.branchPred.BTBLookups                   34                       # Number of BTB lookups
system.cpu.branchPred.BTBHits                       0                       # Number of BTB hits
system.cpu.branchPred.BTBCorrect                    0                       # Number of correct BTB predictions (this stat may not work properly.
system.cpu.branchPred.BTBHitPct              0.000000                       # BTB Hit Percentage
system.cpu.branchPred.usedRAS                       0                       # Number of times the RAS was used to get a target.
system.cpu.branchPred.RASInCorrect                  0                       # Number of incorrect RAS predictions.
system.cpu.branchPred.indirectLookups              34                       # Number of indirect predictor lookups.
system.cpu.branchPred.indirectHits                  0                       # Number of indirect target hits.
system.cpu.branchPred.indirectMisses               34                       # Number of indirect misses.
system.cpu.branchPredindirectMispredicted           11                       # Number of mispredicted indirect branches.
system.cpu.dtb.walker.pwrStateResidencyTicks::UNDEFINED    811415000                       # Cumulative time (in ticks) in various power states
system.cpu.dtb.rdAccesses                       67471                       # TLB accesses on read requests
system.cpu.dtb.wrAccesses                       17121                       # TLB accesses on write requests
system.cpu.dtb.rdMisses                          1692                       # TLB misses on read requests
system.cpu.dtb.wrMisses                            23                       # TLB misses on write requests
system.cpu.apic_clk_domain.clock                16000                       # Clock period in ticks
system.cpu.interrupts.pwrStateResidencyTicks::UNDEFINED    811415000                       # Cumulative time (in ticks) in various power states
system.cpu.itb.walker.pwrStateResidencyTicks::UNDEFINED    811415000                       # Cumulative time (in ticks) in various power states
system.cpu.itb.rdAccesses                           0                       # TLB accesses on read requests
system.cpu.itb.wrAccesses                       69779                       # TLB accesses on write requests
system.cpu.itb.rdMisses                             0                       # TLB misses on read requests
system.cpu.itb.wrMisses                            89                       # TLB misses on write requests
system.cpu.workload.numSyscalls                    32                       # Number of system calls
system.cpu.pwrStateResidencyTicks::ON       811415000                       # Cumulative time (in ticks) in various power states
system.cpu.numCycles                           811415                       # number of cpu cycles simulated
system.cpu.numWorkItemsStarted                      0                       # number of work items this cpu started
system.cpu.numWorkItemsCompleted                    0                       # number of work items this cpu completed
system.cpu.committedInsts                      180286                       # Number of instructions committed
system.cpu.committedOps                        330274                       # Number of ops (including micro ops) committed
system.cpu.discardedOps                         73805                       # Number of ops (including micro ops) which were discarded before commit
system.cpu.numFetchSuspends                         0                       # Number of times Execute suspended instruction fetching
system.cpu.cpi                               4.500710                       # CPI: cycles per instruction
system.cpu.ipc                               0.222187                       # IPC: instructions per cycle
system.cpu.op_class_0::No_OpClass                1287      0.39%      0.39% # Class of committed instruction
system.cpu.op_class_0::IntAlu                  253310     76.70%     77.09% # Class of committed instruction
system.cpu.op_class_0::IntMult                     61      0.02%     77.11% # Class of committed instruction
system.cpu.op_class_0::IntDiv                    1131      0.34%     77.45% # Class of committed instruction
system.cpu.op_class_0::FloatAdd                  2227      0.67%     78.12% # Class of committed instruction
system.cpu.op_class_0::FloatCmp                     0      0.00%     78.12% # Class of committed instruction
system.cpu.op_class_0::FloatCvt                     0      0.00%     78.12% # Class of committed instruction
system.cpu.op_class_0::FloatMult                    0      0.00%     78.12% # Class of committed instruction
system.cpu.op_class_0::FloatMultAcc                 0      0.00%     78.12% # Class of committed instruction
system.cpu.op_class_0::FloatDiv                     0      0.00%     78.12% # Class of committed instruction
system.cpu.op_class_0::FloatMisc                    0      0.00%     78.12% # Class of committed instruction
system.cpu.op_class_0::FloatSqrt                    0      0.00%     78.12% # Class of committed instruction
system.cpu.op_class_0::SimdAdd                      0      0.00%     78.12% # Class of committed instruction
system.cpu.op_class_0::SimdAddAcc                   0      0.00%     78.12% # Class of committed instruction
system.cpu.op_class_0::SimdAlu                      0      0.00%     78.12% # Class of committed instruction
system.cpu.op_class_0::SimdCmp                      0      0.00%     78.12% # Class of committed instruction
system.cpu.op_class_0::SimdCvt                      0      0.00%     78.12% # Class of committed instruction
system.cpu.op_class_0::SimdMisc                     0      0.00%     78.12% # Class of committed instruction
system.cpu.op_class_0::SimdMult                     0      0.00%     78.12% # Class of committed instruction
system.cpu.op_class_0::SimdMultAcc                  0      0.00%     78.12% # Class of committed instruction
system.cpu.op_class_0::SimdShift                    0      0.00%     78.12% # Class of committed instruction
system.cpu.op_class_0::SimdShiftAcc                 0      0.00%     78.12% # Class of committed instruction
system.cpu.op_class_0::SimdSqrt                     0      0.00%     78.12% # Class of committed instruction
system.cpu.op_class_0::SimdFloatAdd                 0      0.00%     78.12% # Class of committed instruction
system.cpu.op_class_0::SimdFloatAlu                 0      0.00%     78.12% # Class of committed instruction
system.cpu.op_class_0::SimdFloatCmp                 0      0.00%     78.12% # Class of committed instruction
system.cpu.op_class_0::SimdFloatCvt                 0      0.00%     78.12% # Class of committed instruction
system.cpu.op_class_0::SimdFloatDiv                 0      0.00%     78.12% # Class of committed instruction
system.cpu.op_class_0::SimdFloatMisc                0      0.00%     78.12% # Class of committed instruction
system.cpu.op_class_0::SimdFloatMult                0      0.00%     78.12% # Class of committed instruction
system.cpu.op_class_0::SimdFloatMultAcc             0      0.00%     78.12% # Class of committed instruction
system.cpu.op_class_0::SimdFloatSqrt                0      0.00%     78.12% # Class of committed instruction
system.cpu.op_class_0::MemRead                  54608     16.53%     94.66% # Class of committed instruction
system.cpu.op_class_0::MemWrite                 16484      4.99%     99.65% # Class of committed instruction
system.cpu.op_class_0::FloatMemRead               782      0.24%     99.88% # Class of committed instruction
system.cpu.op_class_0::FloatMemWrite              384      0.12%    100.00% # Class of committed instruction
system.cpu.op_class_0::IprAccess                    0      0.00%    100.00% # Class of committed instruction
system.cpu.op_class_0::InstPrefetch                 0      0.00%    100.00% # Class of committed instruction
system.cpu.op_class_0::total                   330274                       # Class of committed instruction
system.cpu.tickCycles                          490516                       # Number of cycles that the object actually ticked
system.cpu.idleCycles                          320899                       # Total number of cycles that the object has spent stopped
system.cpu.dcache.tags.pwrStateResidencyTicks::UNDEFINED    811415000                       # Cumulative time (in ticks) in various power states
system.cpu.dcache.tags.replacements               853                       # number of replacements
system.cpu.dcache.tags.tagsinuse          1189.422304                       # Cycle average of tags in use
system.cpu.dcache.tags.total_refs               79483                       # Total number of references to valid blocks.
system.cpu.dcache.tags.sampled_refs              2611                       # Sample count of references to valid blocks.
system.cpu.dcache.tags.avg_refs             30.441593                       # Average number of references to valid blocks.
system.cpu.dcache.tags.warmup_cycle                 0                       # Cycle when the warmup percentage was hit.
system.cpu.dcache.tags.occ_blocks::cpu.data  1189.422304                       # Average occupied blocks per requestor
system.cpu.dcache.tags.occ_percent::cpu.data     0.580773                       # Average percentage of cache occupancy
system.cpu.dcache.tags.occ_percent::total     0.580773                       # Average percentage of cache occupancy
system.cpu.dcache.tags.occ_task_id_blocks::1024         1758                       # Occupied blocks per task id
system.cpu.dcache.tags.age_task_id_blocks_1024::0           29                       # Occupied blocks per task id
system.cpu.dcache.tags.age_task_id_blocks_1024::1           60                       # Occupied blocks per task id
system.cpu.dcache.tags.age_task_id_blocks_1024::2         1669                       # Occupied blocks per task id
system.cpu.dcache.tags.occ_task_id_percent::1024     0.858398                       # Percentage of cache occupancy per task id
system.cpu.dcache.tags.tag_accesses             85093                       # Number of tag accesses
system.cpu.dcache.tags.data_accesses            85093                       # Number of data accesses
system.cpu.dcache.pwrStateResidencyTicks::UNDEFINED    811415000                       # Cumulative time (in ticks) in various power states
system.cpu.dcache.ReadReq_hits::cpu.data        63552                       # number of ReadReq hits
system.cpu.dcache.ReadReq_hits::total           63552                       # number of ReadReq hits
system.cpu.dcache.WriteReq_hits::cpu.data        15931                       # number of WriteReq hits
system.cpu.dcache.WriteReq_hits::total          15931                       # number of WriteReq hits
system.cpu.dcache.demand_hits::cpu.data         79483                       # number of demand (read+write) hits
system.cpu.dcache.demand_hits::total            79483                       # number of demand (read+write) hits
system.cpu.dcache.overall_hits::cpu.data        79483                       # number of overall hits
system.cpu.dcache.overall_hits::total           79483                       # number of overall hits
system.cpu.dcache.ReadReq_misses::cpu.data         2062                       # number of ReadReq misses
system.cpu.dcache.ReadReq_misses::total          2062                       # number of ReadReq misses
system.cpu.dcache.WriteReq_misses::cpu.data          937                       # number of WriteReq misses
system.cpu.dcache.WriteReq_misses::total          937                       # number of WriteReq misses
system.cpu.dcache.demand_misses::cpu.data         2999                       # number of demand (read+write) misses
system.cpu.dcache.demand_misses::total           2999                       # number of demand (read+write) misses
system.cpu.dcache.overall_misses::cpu.data         2999                       # number of overall misses
system.cpu.dcache.overall_misses::total          2999                       # number of overall misses
system.cpu.dcache.ReadReq_miss_latency::cpu.data    213169000                       # number of ReadReq miss cycles
system.cpu.dcache.ReadReq_miss_latency::total    213169000                       # number of ReadReq miss cycles
system.cpu.dcache.WriteReq_miss_latency::cpu.data     89733000                       # number of WriteReq miss cycles
system.cpu.dcache.WriteReq_miss_latency::total     89733000                       # number of WriteReq miss cycles
system.cpu.dcache.demand_miss_latency::cpu.data    302902000                       # number of demand (read+write) miss cycles
system.cpu.dcache.demand_miss_latency::total    302902000                       # number of demand (read+write) miss cycles
system.cpu.dcache.overall_miss_latency::cpu.data    302902000                       # number of overall miss cycles
system.cpu.dcache.overall_miss_latency::total    302902000                       # number of overall miss cycles
system.cpu.dcache.ReadReq_accesses::cpu.data        65614                       # number of ReadReq accesses(hits+misses)
system.cpu.dcache.ReadReq_accesses::total        65614                       # number of ReadReq accesses(hits+misses)
system.cpu.dcache.WriteReq_accesses::cpu.data        16868                       # number of WriteReq accesses(hits+misses)
system.cpu.dcache.WriteReq_accesses::total        16868                       # number of WriteReq accesses(hits+misses)
system.cpu.dcache.demand_accesses::cpu.data        82482                       # number of demand (read+write) accesses
system.cpu.dcache.demand_accesses::total        82482                       # number of demand (read+write) accesses
system.cpu.dcache.overall_accesses::cpu.data        82482                       # number of overall (read+write) accesses
system.cpu.dcache.overall_accesses::total        82482                       # number of overall (read+write) accesses
system.cpu.dcache.ReadReq_miss_rate::cpu.data     0.031426                       # miss rate for ReadReq accesses
system.cpu.dcache.ReadReq_miss_rate::total     0.031426                       # miss rate for ReadReq accesses
system.cpu.dcache.WriteReq_miss_rate::cpu.data     0.055549                       # miss rate for WriteReq accesses
system.cpu.dcache.WriteReq_miss_rate::total     0.055549                       # miss rate for WriteReq accesses
system.cpu.dcache.demand_miss_rate::cpu.data     0.036359                       # miss rate for demand accesses
system.cpu.dcache.demand_miss_rate::total     0.036359                       # miss rate for demand accesses
system.cpu.dcache.overall_miss_rate::cpu.data     0.036359                       # miss rate for overall accesses
system.cpu.dcache.overall_miss_rate::total     0.036359                       # miss rate for overall accesses
system.cpu.dcache.ReadReq_avg_miss_latency::cpu.data 103379.728419                       # average ReadReq miss latency
system.cpu.dcache.ReadReq_avg_miss_latency::total 103379.728419                       # average ReadReq miss latency
system.cpu.dcache.WriteReq_avg_miss_latency::cpu.data 95766.275347                       # average WriteReq miss latency
system.cpu.dcache.WriteReq_avg_miss_latency::total 95766.275347                       # average WriteReq miss latency
system.cpu.dcache.demand_avg_miss_latency::cpu.data 101001.000333                       # average overall miss latency
system.cpu.dcache.demand_avg_miss_latency::total 101001.000333                       # average overall miss latency
system.cpu.dcache.overall_avg_miss_latency::cpu.data 101001.000333                       # average overall miss latency
system.cpu.dcache.overall_avg_miss_latency::total 101001.000333                       # average overall miss latency
system.cpu.dcache.blocked_cycles::no_mshrs            0                       # number of cycles access was blocked
system.cpu.dcache.blocked_cycles::no_targets            0                       # number of cycles access was blocked
system.cpu.dcache.blocked::no_mshrs                 0                       # number of cycles access was blocked
system.cpu.dcache.blocked::no_targets               0                       # number of cycles access was blocked
system.cpu.dcache.avg_blocked_cycles::no_mshrs          nan                       # average number of cycles each access was blocked
system.cpu.dcache.avg_blocked_cycles::no_targets          nan                       # average number of cycles each access was blocked
system.cpu.dcache.writebacks::writebacks          470                       # number of writebacks
system.cpu.dcache.writebacks::total               470                       # number of writebacks
system.cpu.dcache.ReadReq_mshr_hits::cpu.data           18                       # number of ReadReq MSHR hits
system.cpu.dcache.ReadReq_mshr_hits::total           18                       # number of ReadReq MSHR hits
system.cpu.dcache.WriteReq_mshr_hits::cpu.data          370                       # number of WriteReq MSHR hits
system.cpu.dcache.WriteReq_mshr_hits::total          370                       # number of WriteReq MSHR hits
system.cpu.dcache.demand_mshr_hits::cpu.data          388                       # number of demand (read+write) MSHR hits
system.cpu.dcache.demand_mshr_hits::total          388                       # number of demand (read+write) MSHR hits
system.cpu.dcache.overall_mshr_hits::cpu.data          388                       # number of overall MSHR hits
system.cpu.dcache.overall_mshr_hits::total          388                       # number of overall MSHR hits
system.cpu.dcache.ReadReq_mshr_misses::cpu.data         2044                       # number of ReadReq MSHR misses
system.cpu.dcache.ReadReq_mshr_misses::total         2044                       # number of ReadReq MSHR misses
system.cpu.dcache.WriteReq_mshr_misses::cpu.data          567                       # number of WriteReq MSHR misses
system.cpu.dcache.WriteReq_mshr_misses::total          567                       # number of WriteReq MSHR misses
system.cpu.dcache.demand_mshr_misses::cpu.data         2611                       # number of demand (read+write) MSHR misses
system.cpu.dcache.demand_mshr_misses::total         2611                       # number of demand (read+write) MSHR misses
system.cpu.dcache.overall_mshr_misses::cpu.data         2611                       # number of overall MSHR misses
system.cpu.dcache.overall_mshr_misses::total         2611                       # number of overall MSHR misses
system.cpu.dcache.ReadReq_mshr_miss_latency::cpu.data    206916000                       # number of ReadReq MSHR miss cycles
system.cpu.dcache.ReadReq_mshr_miss_latency::total    206916000                       # number of ReadReq MSHR miss cycles
system.cpu.dcache.WriteReq_mshr_miss_latency::cpu.data     56676000                       # number of WriteReq MSHR miss cycles
system.cpu.dcache.WriteReq_mshr_miss_latency::total     56676000                       # number of WriteReq MSHR miss cycles
system.cpu.dcache.demand_mshr_miss_latency::cpu.data    263592000                       # number of demand (read+write) MSHR miss cycles
system.cpu.dcache.demand_mshr_miss_latency::total    263592000                       # number of demand (read+write) MSHR miss cycles
system.cpu.dcache.overall_mshr_miss_latency::cpu.data    263592000                       # number of overall MSHR miss cycles
system.cpu.dcache.overall_mshr_miss_latency::total    263592000                       # number of overall MSHR miss cycles
system.cpu.dcache.ReadReq_mshr_miss_rate::cpu.data     0.031152                       # mshr miss rate for ReadReq accesses
system.cpu.dcache.ReadReq_mshr_miss_rate::total     0.031152                       # mshr miss rate for ReadReq accesses
system.cpu.dcache.WriteReq_mshr_miss_rate::cpu.data     0.033614                       # mshr miss rate for WriteReq accesses
system.cpu.dcache.WriteReq_mshr_miss_rate::total     0.033614                       # mshr miss rate for WriteReq accesses
system.cpu.dcache.demand_mshr_miss_rate::cpu.data     0.031655                       # mshr miss rate for demand accesses
system.cpu.dcache.demand_mshr_miss_rate::total     0.031655                       # mshr miss rate for demand accesses
system.cpu.dcache.overall_mshr_miss_rate::cpu.data     0.031655                       # mshr miss rate for overall accesses
system.cpu.dcache.overall_mshr_miss_rate::total     0.031655                       # mshr miss rate for overall accesses
system.cpu.dcache.ReadReq_avg_mshr_miss_latency::cpu.data 101230.919765                       # average ReadReq mshr miss latency
system.cpu.dcache.ReadReq_avg_mshr_miss_latency::total 101230.919765                       # average ReadReq mshr miss latency
system.cpu.dcache.WriteReq_avg_mshr_miss_latency::cpu.data 99957.671958                       # average WriteReq mshr miss latency
system.cpu.dcache.WriteReq_avg_mshr_miss_latency::total 99957.671958                       # average WriteReq mshr miss latency
system.cpu.dcache.demand_avg_mshr_miss_latency::cpu.data 100954.423592                       # average overall mshr miss latency
system.cpu.dcache.demand_avg_mshr_miss_latency::total 100954.423592                       # average overall mshr miss latency
system.cpu.dcache.overall_avg_mshr_miss_latency::cpu.data 100954.423592                       # average overall mshr miss latency
system.cpu.dcache.overall_avg_mshr_miss_latency::total 100954.423592                       # average overall mshr miss latency
system.cpu.icache.tags.pwrStateResidencyTicks::UNDEFINED    811415000                       # Cumulative time (in ticks) in various power states
system.cpu.icache.tags.replacements               442                       # number of replacements
system.cpu.icache.tags.tagsinuse           590.341030                       # Cycle average of tags in use
system.cpu.icache.tags.total_refs               68550                       # Total number of references to valid blocks.
system.cpu.icache.tags.sampled_refs              1228                       # Sample count of references to valid blocks.
system.cpu.icache.tags.avg_refs             55.822476                       # Average number of references to valid blocks.
system.cpu.icache.tags.warmup_cycle                 0                       # Cycle when the warmup percentage was hit.
system.cpu.icache.tags.occ_blocks::cpu.inst   590.341030                       # Average occupied blocks per requestor
system.cpu.icache.tags.occ_percent::cpu.inst     0.576505                       # Average percentage of cache occupancy
system.cpu.icache.tags.occ_percent::total     0.576505                       # Average percentage of cache occupancy
system.cpu.icache.tags.occ_task_id_blocks::1024          786                       # Occupied blocks per task id
system.cpu.icache.tags.age_task_id_blocks_1024::0           70                       # Occupied blocks per task id
system.cpu.icache.tags.age_task_id_blocks_1024::1          136                       # Occupied blocks per task id
system.cpu.icache.tags.age_task_id_blocks_1024::2          580                       # Occupied blocks per task id
system.cpu.icache.tags.occ_task_id_percent::1024     0.767578                       # Percentage of cache occupancy per task id
system.cpu.icache.tags.tag_accesses             71007                       # Number of tag accesses
system.cpu.icache.tags.data_accesses            71007                       # Number of data accesses
system.cpu.icache.pwrStateResidencyTicks::UNDEFINED    811415000                       # Cumulative time (in ticks) in various power states
system.cpu.icache.ReadReq_hits::cpu.inst        68550                       # number of ReadReq hits
system.cpu.icache.ReadReq_hits::total           68550                       # number of ReadReq hits
system.cpu.icache.demand_hits::cpu.inst         68550                       # number of demand (read+write) hits
system.cpu.icache.demand_hits::total            68550                       # number of demand (read+write) hits
system.cpu.icache.overall_hits::cpu.inst        68550                       # number of overall hits
system.cpu.icache.overall_hits::total           68550                       # number of overall hits
system.cpu.icache.ReadReq_misses::cpu.inst         1229                       # number of ReadReq misses
system.cpu.icache.ReadReq_misses::total          1229                       # number of ReadReq misses
system.cpu.icache.demand_misses::cpu.inst         1229                       # number of demand (read+write) misses
system.cpu.icache.demand_misses::total           1229                       # number of demand (read+write) misses
system.cpu.icache.overall_misses::cpu.inst         1229                       # number of overall misses
system.cpu.icache.overall_misses::total          1229                       # number of overall misses
system.cpu.icache.ReadReq_miss_latency::cpu.inst    124779000                       # number of ReadReq miss cycles
system.cpu.icache.ReadReq_miss_latency::total    124779000                       # number of ReadReq miss cycles
system.cpu.icache.demand_miss_latency::cpu.inst    124779000                       # number of demand (read+write) miss cycles
system.cpu.icache.demand_miss_latency::total    124779000                       # number of demand (read+write) miss cycles
system.cpu.icache.overall_miss_latency::cpu.inst    124779000                       # number of overall miss cycles
system.cpu.icache.overall_miss_latency::total    124779000                       # number of overall miss cycles
system.cpu.icache.ReadReq_accesses::cpu.inst        69779                       # number of ReadReq accesses(hits+misses)
system.cpu.icache.ReadReq_accesses::total        69779                       # number of ReadReq accesses(hits+misses)
system.cpu.icache.demand_accesses::cpu.inst        69779                       # number of demand (read+write) accesses
system.cpu.icache.demand_accesses::total        69779                       # number of demand (read+write) accesses
system.cpu.icache.overall_accesses::cpu.inst        69779                       # number of overall (read+write) accesses
system.cpu.icache.overall_accesses::total        69779                       # number of overall (read+write) accesses
system.cpu.icache.ReadReq_miss_rate::cpu.inst     0.017613                       # miss rate for ReadReq accesses
system.cpu.icache.ReadReq_miss_rate::total     0.017613                       # miss rate for ReadReq accesses
system.cpu.icache.demand_miss_rate::cpu.inst     0.017613                       # miss rate for demand accesses
system.cpu.icache.demand_miss_rate::total     0.017613                       # miss rate for demand accesses
system.cpu.icache.overall_miss_rate::cpu.inst     0.017613                       # miss rate for overall accesses
system.cpu.icache.overall_miss_rate::total     0.017613                       # miss rate for overall accesses
system.cpu.icache.ReadReq_avg_miss_latency::cpu.inst 101528.885273                       # average ReadReq miss latency
system.cpu.icache.ReadReq_avg_miss_latency::total 101528.885273                       # average ReadReq miss latency
system.cpu.icache.demand_avg_miss_latency::cpu.inst 101528.885273                       # average overall miss latency
system.cpu.icache.demand_avg_miss_latency::total 101528.885273                       # average overall miss latency
system.cpu.icache.overall_avg_miss_latency::cpu.inst 101528.885273                       # average overall miss latency
system.cpu.icache.overall_avg_miss_latency::total 101528.885273                       # average overall miss latency
system.cpu.icache.blocked_cycles::no_mshrs            0                       # number of cycles access was blocked
system.cpu.icache.blocked_cycles::no_targets            0                       # number of cycles access was blocked
system.cpu.icache.blocked::no_mshrs                 0                       # number of cycles access was blocked
system.cpu.icache.blocked::no_targets               0                       # number of cycles access was blocked
system.cpu.icache.avg_blocked_cycles::no_mshrs          nan                       # average number of cycles each access was blocked
system.cpu.icache.avg_blocked_cycles::no_targets          nan                       # average number of cycles each access was blocked
system.cpu.icache.ReadReq_mshr_misses::cpu.inst         1229                       # number of ReadReq MSHR misses
system.cpu.icache.ReadReq_mshr_misses::total         1229                       # number of ReadReq MSHR misses
system.cpu.icache.demand_mshr_misses::cpu.inst         1229                       # number of demand (read+write) MSHR misses
system.cpu.icache.demand_mshr_misses::total         1229                       # number of demand (read+write) MSHR misses
system.cpu.icache.overall_mshr_misses::cpu.inst         1229                       # number of overall MSHR misses
system.cpu.icache.overall_mshr_misses::total         1229                       # number of overall MSHR misses
system.cpu.icache.ReadReq_mshr_miss_latency::cpu.inst    122323000                       # number of ReadReq MSHR miss cycles
system.cpu.icache.ReadReq_mshr_miss_latency::total    122323000                       # number of ReadReq MSHR miss cycles
system.cpu.icache.demand_mshr_miss_latency::cpu.inst    122323000                       # number of demand (read+write) MSHR miss cycles
system.cpu.icache.demand_mshr_miss_latency::total    122323000                       # number of demand (read+write) MSHR miss cycles
system.cpu.icache.overall_mshr_miss_latency::cpu.inst    122323000                       # number of overall MSHR miss cycles
system.cpu.icache.overall_mshr_miss_latency::total    122323000                       # number of overall MSHR miss cycles
system.cpu.icache.ReadReq_mshr_miss_rate::cpu.inst     0.017613                       # mshr miss rate for ReadReq accesses
system.cpu.icache.ReadReq_mshr_miss_rate::total     0.017613                       # mshr miss rate for ReadReq accesses
system.cpu.icache.demand_mshr_miss_rate::cpu.inst     0.017613                       # mshr miss rate for demand accesses
system.cpu.icache.demand_mshr_miss_rate::total     0.017613                       # mshr miss rate for demand accesses
system.cpu.icache.overall_mshr_miss_rate::cpu.inst     0.017613                       # mshr miss rate for overall accesses
system.cpu.icache.overall_mshr_miss_rate::total     0.017613                       # mshr miss rate for overall accesses
system.cpu.icache.ReadReq_avg_mshr_miss_latency::cpu.inst 99530.512612                       # average ReadReq mshr miss latency
system.cpu.icache.ReadReq_avg_mshr_miss_latency::total 99530.512612                       # average ReadReq mshr miss latency
system.cpu.icache.demand_avg_mshr_miss_latency::cpu.inst 99530.512612                       # average overall mshr miss latency
system.cpu.icache.demand_avg_mshr_miss_latency::total 99530.512612                       # average overall mshr miss latency
system.cpu.icache.overall_avg_mshr_miss_latency::cpu.inst 99530.512612                       # average overall mshr miss latency
system.cpu.icache.overall_avg_mshr_miss_latency::total 99530.512612                       # average overall mshr miss latency
system.l2bus.snoop_filter.tot_requests           5135                       # Total number of requests made to the snoop filter.
system.l2bus.snoop_filter.hit_single_requests         1300                       # Number of requests hitting in the snoop filter with a single holder of the requested data.
system.l2bus.snoop_filter.hit_multi_requests            1                       # Number of requests hitting in the snoop filter with multiple (>1) holders of the requested data.
system.l2bus.snoop_filter.tot_snoops                0                       # Total number of snoops made to the snoop filter.
system.l2bus.snoop_filter.hit_single_snoops            0                       # Number of snoops hitting in the snoop filter with a single holder of the requested data.
system.l2bus.snoop_filter.hit_multi_snoops            0                       # Number of snoops hitting in the snoop filter with multiple (>1) holders of the requested data.
system.l2bus.pwrStateResidencyTicks::UNDEFINED    811415000                       # Cumulative time (in ticks) in various power states
system.l2bus.trans_dist::ReadResp                3272                       # Transaction distribution
system.l2bus.trans_dist::WritebackDirty           470                       # Transaction distribution
system.l2bus.trans_dist::CleanEvict               825                       # Transaction distribution
system.l2bus.trans_dist::ReadExReq                567                       # Transaction distribution
system.l2bus.trans_dist::ReadExResp               567                       # Transaction distribution
system.l2bus.trans_dist::ReadSharedReq           3273                       # Transaction distribution
system.l2bus.pkt_count_system.cpu.icache.mem_side::system.l2cache.cpu_side         2899                       # Packet count per connected master and slave (bytes)
system.l2bus.pkt_count_system.cpu.dcache.mem_side::system.l2cache.cpu_side         6075                       # Packet count per connected master and slave (bytes)
system.l2bus.pkt_count::total                    8974                       # Packet count per connected master and slave (bytes)
system.l2bus.pkt_size_system.cpu.icache.mem_side::system.l2cache.cpu_side        78592                       # Cumulative packet size per connected master and slave (bytes)
system.l2bus.pkt_size_system.cpu.dcache.mem_side::system.l2cache.cpu_side       197184                       # Cumulative packet size per connected master and slave (bytes)
system.l2bus.pkt_size::total                   275776                       # Cumulative packet size per connected master and slave (bytes)
system.l2bus.snoops                                 0                       # Total snoops (count)
system.l2bus.snoopTraffic                           0                       # Total snoop traffic (bytes)
system.l2bus.snoop_fanout::samples               3840                       # Request fanout histogram
system.l2bus.snoop_fanout::mean              0.001563                       # Request fanout histogram
system.l2bus.snoop_fanout::stdev             0.039503                       # Request fanout histogram
system.l2bus.snoop_fanout::underflows               0      0.00%      0.00% # Request fanout histogram
system.l2bus.snoop_fanout::0                     3834     99.84%     99.84% # Request fanout histogram
system.l2bus.snoop_fanout::1                        6      0.16%    100.00% # Request fanout histogram
system.l2bus.snoop_fanout::2                        0      0.00%    100.00% # Request fanout histogram
system.l2bus.snoop_fanout::overflows                0      0.00%    100.00% # Request fanout histogram
system.l2bus.snoop_fanout::min_value                0                       # Request fanout histogram
system.l2bus.snoop_fanout::max_value                1                       # Request fanout histogram
system.l2bus.snoop_fanout::total                 3840                       # Request fanout histogram
system.l2bus.reqLayer0.occupancy              6075000                       # Layer occupancy (ticks)
system.l2bus.reqLayer0.utilization                0.7                       # Layer utilization (%)
system.l2bus.respLayer0.occupancy             3684000                       # Layer occupancy (ticks)
system.l2bus.respLayer0.utilization               0.5                       # Layer utilization (%)
system.l2bus.respLayer1.occupancy             7833000                       # Layer occupancy (ticks)
system.l2bus.respLayer1.utilization               1.0                       # Layer utilization (%)
system.l2cache.tags.pwrStateResidencyTicks::UNDEFINED    811415000                       # Cumulative time (in ticks) in various power states
system.l2cache.tags.replacements                    0                       # number of replacements
system.l2cache.tags.tagsinuse             2172.384664                       # Cycle average of tags in use
system.l2cache.tags.total_refs                   1588                       # Total number of references to valid blocks.
system.l2cache.tags.sampled_refs                 3545                       # Sample count of references to valid blocks.
system.l2cache.tags.avg_refs                 0.447955                       # Average number of references to valid blocks.
system.l2cache.tags.warmup_cycle                    0                       # Cycle when the warmup percentage was hit.
system.l2cache.tags.occ_blocks::cpu.inst   717.287681                       # Average occupied blocks per requestor
system.l2cache.tags.occ_blocks::cpu.data  1455.096984                       # Average occupied blocks per requestor
system.l2cache.tags.occ_percent::cpu.inst     0.010945                       # Average percentage of cache occupancy
system.l2cache.tags.occ_percent::cpu.data     0.022203                       # Average percentage of cache occupancy
system.l2cache.tags.occ_percent::total       0.033148                       # Average percentage of cache occupancy
system.l2cache.tags.occ_task_id_blocks::1024         3545                       # Occupied blocks per task id
system.l2cache.tags.age_task_id_blocks_1024::0           70                       # Occupied blocks per task id
system.l2cache.tags.age_task_id_blocks_1024::1          156                       # Occupied blocks per task id
system.l2cache.tags.age_task_id_blocks_1024::2         3319                       # Occupied blocks per task id
system.l2cache.tags.occ_task_id_percent::1024     0.054092                       # Percentage of cache occupancy per task id
system.l2cache.tags.tag_accesses                44617                       # Number of tag accesses
system.l2cache.tags.data_accesses               44617                       # Number of data accesses
system.l2cache.pwrStateResidencyTicks::UNDEFINED    811415000                       # Cumulative time (in ticks) in various power states
system.l2cache.WritebackDirty_hits::writebacks          470                       # number of WritebackDirty hits
system.l2cache.WritebackDirty_hits::total          470                       # number of WritebackDirty hits
system.l2cache.ReadExReq_hits::cpu.data            35                       # number of ReadExReq hits
system.l2cache.ReadExReq_hits::total               35                       # number of ReadExReq hits
system.l2cache.ReadSharedReq_hits::cpu.inst           95                       # number of ReadSharedReq hits
system.l2cache.ReadSharedReq_hits::cpu.data          164                       # number of ReadSharedReq hits
system.l2cache.ReadSharedReq_hits::total          259                       # number of ReadSharedReq hits
system.l2cache.demand_hits::cpu.inst               95                       # number of demand (read+write) hits
system.l2cache.demand_hits::cpu.data              199                       # number of demand (read+write) hits
system.l2cache.demand_hits::total                 294                       # number of demand (read+write) hits
system.l2cache.overall_hits::cpu.inst              95                       # number of overall hits
system.l2cache.overall_hits::cpu.data             199                       # number of overall hits
system.l2cache.overall_hits::total                294                       # number of overall hits
system.l2cache.ReadExReq_misses::cpu.data          532                       # number of ReadExReq misses
system.l2cache.ReadExReq_misses::total            532                       # number of ReadExReq misses
system.l2cache.ReadSharedReq_misses::cpu.inst         1134                       # number of ReadSharedReq misses
system.l2cache.ReadSharedReq_misses::cpu.data         1880                       # number of ReadSharedReq misses
system.l2cache.ReadSharedReq_misses::total         3014                       # number of ReadSharedReq misses
system.l2cache.demand_misses::cpu.inst           1134                       # number of demand (read+write) misses
system.l2cache.demand_misses::cpu.data           2412                       # number of demand (read+write) misses
system.l2cache.demand_misses::total              3546                       # number of demand (read+write) misses
system.l2cache.overall_misses::cpu.inst          1134                       # number of overall misses
system.l2cache.overall_misses::cpu.data          2412                       # number of overall misses
system.l2cache.overall_misses::total             3546                       # number of overall misses
system.l2cache.ReadExReq_miss_latency::cpu.data     54224000                       # number of ReadExReq miss cycles
system.l2cache.ReadExReq_miss_latency::total     54224000                       # number of ReadExReq miss cycles
system.l2cache.ReadSharedReq_miss_latency::cpu.inst    116638000                       # number of ReadSharedReq miss cycles
system.l2cache.ReadSharedReq_miss_latency::cpu.data    197330000                       # number of ReadSharedReq miss cycles
system.l2cache.ReadSharedReq_miss_latency::total    313968000                       # number of ReadSharedReq miss cycles
system.l2cache.demand_miss_latency::cpu.inst    116638000                       # number of demand (read+write) miss cycles
system.l2cache.demand_miss_latency::cpu.data    251554000                       # number of demand (read+write) miss cycles
system.l2cache.demand_miss_latency::total    368192000                       # number of demand (read+write) miss cycles
system.l2cache.overall_miss_latency::cpu.inst    116638000                       # number of overall miss cycles
system.l2cache.overall_miss_latency::cpu.data    251554000                       # number of overall miss cycles
system.l2cache.overall_miss_latency::total    368192000                       # number of overall miss cycles
system.l2cache.WritebackDirty_accesses::writebacks          470                       # number of WritebackDirty accesses(hits+misses)
system.l2cache.WritebackDirty_accesses::total          470                       # number of WritebackDirty accesses(hits+misses)
system.l2cache.ReadExReq_accesses::cpu.data          567                       # number of ReadExReq accesses(hits+misses)
system.l2cache.ReadExReq_accesses::total          567                       # number of ReadExReq accesses(hits+misses)
system.l2cache.ReadSharedReq_accesses::cpu.inst         1229                       # number of ReadSharedReq accesses(hits+misses)
system.l2cache.ReadSharedReq_accesses::cpu.data         2044                       # number of ReadSharedReq accesses(hits+misses)
system.l2cache.ReadSharedReq_accesses::total         3273                       # number of ReadSharedReq accesses(hits+misses)
system.l2cache.demand_accesses::cpu.inst         1229                       # number of demand (read+write) accesses
system.l2cache.demand_accesses::cpu.data         2611                       # number of demand (read+write) accesses
system.l2cache.demand_accesses::total            3840                       # number of demand (read+write) accesses
system.l2cache.overall_accesses::cpu.inst         1229                       # number of overall (read+write) accesses
system.l2cache.overall_accesses::cpu.data         2611                       # number of overall (read+write) accesses
system.l2cache.overall_accesses::total           3840                       # number of overall (read+write) accesses
system.l2cache.ReadExReq_miss_rate::cpu.data     0.938272                       # miss rate for ReadExReq accesses
system.l2cache.ReadExReq_miss_rate::total     0.938272                       # miss rate for ReadExReq accesses
system.l2cache.ReadSharedReq_miss_rate::cpu.inst     0.922701                       # miss rate for ReadSharedReq accesses
system.l2cache.ReadSharedReq_miss_rate::cpu.data     0.919765                       # miss rate for ReadSharedReq accesses
system.l2cache.ReadSharedReq_miss_rate::total     0.920868                       # miss rate for ReadSharedReq accesses
system.l2cache.demand_miss_rate::cpu.inst     0.922701                       # miss rate for demand accesses
system.l2cache.demand_miss_rate::cpu.data     0.923784                       # miss rate for demand accesses
system.l2cache.demand_miss_rate::total       0.923438                       # miss rate for demand accesses
system.l2cache.overall_miss_rate::cpu.inst     0.922701                       # miss rate for overall accesses
system.l2cache.overall_miss_rate::cpu.data     0.923784                       # miss rate for overall accesses
system.l2cache.overall_miss_rate::total      0.923438                       # miss rate for overall accesses
system.l2cache.ReadExReq_avg_miss_latency::cpu.data 101924.812030                       # average ReadExReq miss latency
system.l2cache.ReadExReq_avg_miss_latency::total 101924.812030                       # average ReadExReq miss latency
system.l2cache.ReadSharedReq_avg_miss_latency::cpu.inst 102855.379189                       # average ReadSharedReq miss latency
system.l2cache.ReadSharedReq_avg_miss_latency::cpu.data 104962.765957                       # average ReadSharedReq miss latency
system.l2cache.ReadSharedReq_avg_miss_latency::total 104169.873922                       # average ReadSharedReq miss latency
system.l2cache.demand_avg_miss_latency::cpu.inst 102855.379189                       # average overall miss latency
system.l2cache.demand_avg_miss_latency::cpu.data 104292.703151                       # average overall miss latency
system.l2cache.demand_avg_miss_latency::total 103833.051325                       # average overall miss latency
system.l2cache.overall_avg_miss_latency::cpu.inst 102855.379189                       # average overall miss latency
system.l2cache.overall_avg_miss_latency::cpu.data 104292.703151                       # average overall miss latency
system.l2cache.overall_avg_miss_latency::total 103833.051325                       # average overall miss latency
system.l2cache.blocked_cycles::no_mshrs             0                       # number of cycles access was blocked
system.l2cache.blocked_cycles::no_targets            0                       # number of cycles access was blocked
system.l2cache.blocked::no_mshrs                    0                       # number of cycles access was blocked
system.l2cache.blocked::no_targets                  0                       # number of cycles access was blocked
system.l2cache.avg_blocked_cycles::no_mshrs          nan                       # average number of cycles each access was blocked
system.l2cache.avg_blocked_cycles::no_targets          nan                       # average number of cycles each access was blocked
system.l2cache.ReadExReq_mshr_misses::cpu.data          532                       # number of ReadExReq MSHR misses
system.l2cache.ReadExReq_mshr_misses::total          532                       # number of ReadExReq MSHR misses
system.l2cache.ReadSharedReq_mshr_misses::cpu.inst         1134                       # number of ReadSharedReq MSHR misses
system.l2cache.ReadSharedReq_mshr_misses::cpu.data         1880                       # number of ReadSharedReq MSHR misses
system.l2cache.ReadSharedReq_mshr_misses::total         3014                       # number of ReadSharedReq MSHR misses
system.l2cache.demand_mshr_misses::cpu.inst         1134                       # number of demand (read+write) MSHR misses
system.l2cache.demand_mshr_misses::cpu.data         2412                       # number of demand (read+write) MSHR misses
system.l2cache.demand_mshr_misses::total         3546                       # number of demand (read+write) MSHR misses
system.l2cache.overall_mshr_misses::cpu.inst         1134                       # number of overall MSHR misses
system.l2cache.overall_mshr_misses::cpu.data         2412                       # number of overall MSHR misses
system.l2cache.overall_mshr_misses::total         3546                       # number of overall MSHR misses
system.l2cache.ReadExReq_mshr_miss_latency::cpu.data     43584000                       # number of ReadExReq MSHR miss cycles
system.l2cache.ReadExReq_mshr_miss_latency::total     43584000                       # number of ReadExReq MSHR miss cycles
system.l2cache.ReadSharedReq_mshr_miss_latency::cpu.inst     93978000                       # number of ReadSharedReq MSHR miss cycles
system.l2cache.ReadSharedReq_mshr_miss_latency::cpu.data    159730000                       # number of ReadSharedReq MSHR miss cycles
system.l2cache.ReadSharedReq_mshr_miss_latency::total    253708000                       # number of ReadSharedReq MSHR miss cycles
system.l2cache.demand_mshr_miss_latency::cpu.inst     93978000                       # number of demand (read+write) MSHR miss cycles
system.l2cache.demand_mshr_miss_latency::cpu.data    203314000                       # number of demand (read+write) MSHR miss cycles
system.l2cache.demand_mshr_miss_latency::total    297292000                       # number of demand (read+write) MSHR miss cycles
system.l2cache.overall_mshr_miss_latency::cpu.inst     93978000                       # number of overall MSHR miss cycles
system.l2cache.overall_mshr_miss_latency::cpu.data    203314000                       # number of overall MSHR miss cycles
system.l2cache.overall_mshr_miss_latency::total    297292000                       # number of overall MSHR miss cycles
system.l2cache.ReadExReq_mshr_miss_rate::cpu.data     0.938272                       # mshr miss rate for ReadExReq accesses
system.l2cache.ReadExReq_mshr_miss_rate::total     0.938272                       # mshr miss rate for ReadExReq accesses
system.l2cache.ReadSharedReq_mshr_miss_rate::cpu.inst     0.922701                       # mshr miss rate for ReadSharedReq accesses
system.l2cache.ReadSharedReq_mshr_miss_rate::cpu.data     0.919765                       # mshr miss rate for ReadSharedReq accesses
system.l2cache.ReadSharedReq_mshr_miss_rate::total     0.920868                       # mshr miss rate for ReadSharedReq accesses
system.l2cache.demand_mshr_miss_rate::cpu.inst     0.922701                       # mshr miss rate for demand accesses
system.l2cache.demand_mshr_miss_rate::cpu.data     0.923784                       # mshr miss rate for demand accesses
system.l2cache.demand_mshr_miss_rate::total     0.923438                       # mshr miss rate for demand accesses
system.l2cache.overall_mshr_miss_rate::cpu.inst     0.922701                       # mshr miss rate for overall accesses
system.l2cache.overall_mshr_miss_rate::cpu.data     0.923784                       # mshr miss rate for overall accesses
system.l2cache.overall_mshr_miss_rate::total     0.923438                       # mshr miss rate for overall accesses
system.l2cache.ReadExReq_avg_mshr_miss_latency::cpu.data 81924.812030                       # average ReadExReq mshr miss latency
system.l2cache.ReadExReq_avg_mshr_miss_latency::total 81924.812030                       # average ReadExReq mshr miss latency
system.l2cache.ReadSharedReq_avg_mshr_miss_latency::cpu.inst 82873.015873                       # average ReadSharedReq mshr miss latency
system.l2cache.ReadSharedReq_avg_mshr_miss_latency::cpu.data 84962.765957                       # average ReadSharedReq mshr miss latency
system.l2cache.ReadSharedReq_avg_mshr_miss_latency::total 84176.509622                       # average ReadSharedReq mshr miss latency
system.l2cache.demand_avg_mshr_miss_latency::cpu.inst 82873.015873                       # average overall mshr miss latency
system.l2cache.demand_avg_mshr_miss_latency::cpu.data 84292.703151                       # average overall mshr miss latency
system.l2cache.demand_avg_mshr_miss_latency::total 83838.691483                       # average overall mshr miss latency
system.l2cache.overall_avg_mshr_miss_latency::cpu.inst 82873.015873                       # average overall mshr miss latency
system.l2cache.overall_avg_mshr_miss_latency::cpu.data 84292.703151                       # average overall mshr miss latency
system.l2cache.overall_avg_mshr_miss_latency::total 83838.691483                       # average overall mshr miss latency
system.membus.snoop_filter.tot_requests          3545                       # Total number of requests made to the snoop filter.
system.membus.snoop_filter.hit_single_requests            0                       # Number of requests hitting in the snoop filter with a single holder of the requested data.
system.membus.snoop_filter.hit_multi_requests            0                       # Number of requests hitting in the snoop filter with multiple (>1) holders of the requested data.
system.membus.snoop_filter.tot_snoops               0                       # Total number of snoops made to the snoop filter.
system.membus.snoop_filter.hit_single_snoops            0                       # Number of snoops hitting in the snoop filter with a single holder of the requested data.
system.membus.snoop_filter.hit_multi_snoops            0                       # Number of snoops hitting in the snoop filter with multiple (>1) holders of the requested data.
system.membus.pwrStateResidencyTicks::UNDEFINED    811415000                       # Cumulative time (in ticks) in various power states
system.membus.trans_dist::ReadResp               3013                       # Transaction distribution
system.membus.trans_dist::ReadExReq               532                       # Transaction distribution
system.membus.trans_dist::ReadExResp              532                       # Transaction distribution
system.membus.trans_dist::ReadSharedReq          3013                       # Transaction distribution
system.membus.pkt_count_system.l2cache.mem_side::system.mem_ctrl.port         7090                       # Packet count per connected master and slave (bytes)
system.membus.pkt_count_system.l2cache.mem_side::total         7090                       # Packet count per connected master and slave (bytes)
system.membus.pkt_count::total                   7090                       # Packet count per connected master and slave (bytes)
system.membus.pkt_size_system.l2cache.mem_side::system.mem_ctrl.port       226880                       # Cumulative packet size per connected master and slave (bytes)
system.membus.pkt_size_system.l2cache.mem_side::total       226880                       # Cumulative packet size per connected master and slave (bytes)
system.membus.pkt_size::total                  226880                       # Cumulative packet size per connected master and slave (bytes)
system.membus.snoops                                0                       # Total snoops (count)
system.membus.snoopTraffic                          0                       # Total snoop traffic (bytes)
system.membus.snoop_fanout::samples              3545                       # Request fanout histogram
system.membus.snoop_fanout::mean                    0                       # Request fanout histogram
system.membus.snoop_fanout::stdev                   0                       # Request fanout histogram
system.membus.snoop_fanout::underflows              0      0.00%      0.00% # Request fanout histogram
system.membus.snoop_fanout::0                    3545    100.00%    100.00% # Request fanout histogram
system.membus.snoop_fanout::1                       0      0.00%    100.00% # Request fanout histogram
system.membus.snoop_fanout::overflows               0      0.00%    100.00% # Request fanout histogram
system.membus.snoop_fanout::min_value               0                       # Request fanout histogram
system.membus.snoop_fanout::max_value               0                       # Request fanout histogram
system.membus.snoop_fanout::total                3545                       # Request fanout histogram
system.membus.reqLayer2.occupancy             3545000                       # Layer occupancy (ticks)
system.membus.reqLayer2.utilization               0.4                       # Layer utilization (%)
system.membus.respLayer0.occupancy           18778000                       # Layer occupancy (ticks)
system.membus.respLayer0.utilization              2.3                       # Layer utilization (%)

---------- End Simulation Statistics   ----------
