
---------- Begin Simulation Statistics ----------
sim_seconds                                  0.000416                       # Number of seconds simulated
sim_ticks                                   416225200                       # Number of ticks simulated
final_tick                                  416225200                       # Number of ticks from beginning of simulation (restored from checkpoints and never reset)
sim_freq                                 1000000000000                       # Frequency of simulated ticks
host_inst_rate                                 150966                       # Simulator instruction rate (inst/s)
host_op_rate                                   276559                       # Simulator op (including micro ops) rate (op/s)
host_tick_rate                              348529817                       # Simulator tick rate (ticks/s)
host_mem_usage                                 682764                       # Number of bytes of host memory used
host_seconds                                     1.19                       # Real time elapsed on the host
sim_insts                                      180286                       # Number of instructions simulated
sim_ops                                        330274                       # Number of ops (including micro ops) simulated
system.clk_domain.voltage_domain.voltage            1                       # Voltage in Volts
system.clk_domain.clock                           400                       # Clock period in ticks
system.mem_ctrl.pwrStateResidencyTicks::UNDEFINED    416225200                       # Cumulative time (in ticks) in various power states
system.mem_ctrl.bytes_read::cpu.inst            72512                       # Number of bytes read from this memory
system.mem_ctrl.bytes_read::cpu.data           154368                       # Number of bytes read from this memory
system.mem_ctrl.bytes_read::total              226880                       # Number of bytes read from this memory
system.mem_ctrl.bytes_inst_read::cpu.inst        72512                       # Number of instructions bytes read from this memory
system.mem_ctrl.bytes_inst_read::total          72512                       # Number of instructions bytes read from this memory
system.mem_ctrl.num_reads::cpu.inst              1133                       # Number of read requests responded to by this memory
system.mem_ctrl.num_reads::cpu.data              2412                       # Number of read requests responded to by this memory
system.mem_ctrl.num_reads::total                 3545                       # Number of read requests responded to by this memory
system.mem_ctrl.bw_read::cpu.inst           174213383                       # Total read bandwidth from this memory (bytes/s)
system.mem_ctrl.bw_read::cpu.data           370876151                       # Total read bandwidth from this memory (bytes/s)
system.mem_ctrl.bw_read::total              545089533                       # Total read bandwidth from this memory (bytes/s)
system.mem_ctrl.bw_inst_read::cpu.inst      174213383                       # Instruction read bandwidth from this memory (bytes/s)
system.mem_ctrl.bw_inst_read::total         174213383                       # Instruction read bandwidth from this memory (bytes/s)
system.mem_ctrl.bw_total::cpu.inst          174213383                       # Total bandwidth to/from this memory (bytes/s)
system.mem_ctrl.bw_total::cpu.data          370876151                       # Total bandwidth to/from this memory (bytes/s)
system.mem_ctrl.bw_total::total             545089533                       # Total bandwidth to/from this memory (bytes/s)
system.mem_ctrl.readReqs                         3545                       # Number of read requests accepted
system.mem_ctrl.writeReqs                           0                       # Number of write requests accepted
system.mem_ctrl.readBursts                       3545                       # Number of DRAM read bursts, including those serviced by the write queue
system.mem_ctrl.writeBursts                         0                       # Number of DRAM write bursts, including those merged in the write queue
system.mem_ctrl.bytesReadDRAM                  226880                       # Total number of bytes read from DRAM
system.mem_ctrl.bytesReadWrQ                        0                       # Total number of bytes read from write queue
system.mem_ctrl.bytesWritten                        0                       # Total number of bytes written to DRAM
system.mem_ctrl.bytesReadSys                   226880                       # Total read bytes from the system interface side
system.mem_ctrl.bytesWrittenSys                     0                       # Total written bytes from the system interface side
system.mem_ctrl.servicedByWrQ                       0                       # Number of DRAM read bursts serviced by the write queue
system.mem_ctrl.mergedWrBursts                      0                       # Number of DRAM write bursts merged with an existing one
system.mem_ctrl.neitherReadNorWriteReqs             0                       # Number of requests that are neither read nor write
system.mem_ctrl.perBankRdBursts::0                243                       # Per bank write bursts
system.mem_ctrl.perBankRdBursts::1                238                       # Per bank write bursts
system.mem_ctrl.perBankRdBursts::2                210                       # Per bank write bursts
system.mem_ctrl.perBankRdBursts::3                156                       # Per bank write bursts
system.mem_ctrl.perBankRdBursts::4                267                       # Per bank write bursts
system.mem_ctrl.perBankRdBursts::5                273                       # Per bank write bursts
system.mem_ctrl.perBankRdBursts::6                262                       # Per bank write bursts
system.mem_ctrl.perBankRdBursts::7                242                       # Per bank write bursts
system.mem_ctrl.perBankRdBursts::8                221                       # Per bank write bursts
system.mem_ctrl.perBankRdBursts::9                303                       # Per bank write bursts
system.mem_ctrl.perBankRdBursts::10               367                       # Per bank write bursts
system.mem_ctrl.perBankRdBursts::11               252                       # Per bank write bursts
system.mem_ctrl.perBankRdBursts::12                38                       # Per bank write bursts
system.mem_ctrl.perBankRdBursts::13                76                       # Per bank write bursts
system.mem_ctrl.perBankRdBursts::14               139                       # Per bank write bursts
system.mem_ctrl.perBankRdBursts::15               258                       # Per bank write bursts
system.mem_ctrl.perBankWrBursts::0                  0                       # Per bank write bursts
system.mem_ctrl.perBankWrBursts::1                  0                       # Per bank write bursts
system.mem_ctrl.perBankWrBursts::2                  0                       # Per bank write bursts
system.mem_ctrl.perBankWrBursts::3                  0                       # Per bank write bursts
system.mem_ctrl.perBankWrBursts::4                  0                       # Per bank write bursts
system.mem_ctrl.perBankWrBursts::5                  0                       # Per bank write bursts
system.mem_ctrl.perBankWrBursts::6                  0                       # Per bank write bursts
system.mem_ctrl.perBankWrBursts::7                  0                       # Per bank write bursts
system.mem_ctrl.perBankWrBursts::8                  0                       # Per bank write bursts
system.mem_ctrl.perBankWrBursts::9                  0                       # Per bank write bursts
system.mem_ctrl.perBankWrBursts::10                 0                       # Per bank write bursts
system.mem_ctrl.perBankWrBursts::11                 0                       # Per bank write bursts
system.mem_ctrl.perBankWrBursts::12                 0                       # Per bank write bursts
system.mem_ctrl.perBankWrBursts::13                 0                       # Per bank write bursts
system.mem_ctrl.perBankWrBursts::14                 0                       # Per bank write bursts
system.mem_ctrl.perBankWrBursts::15                 0                       # Per bank write bursts
system.mem_ctrl.numRdRetry                          0                       # Number of times read queue was full causing retry
system.mem_ctrl.numWrRetry                          0                       # Number of times write queue was full causing retry
system.mem_ctrl.totGap                      416154400                       # Total gap between requests
system.mem_ctrl.readPktSize::0                      0                       # Read request sizes (log2)
system.mem_ctrl.readPktSize::1                      0                       # Read request sizes (log2)
system.mem_ctrl.readPktSize::2                      0                       # Read request sizes (log2)
system.mem_ctrl.readPktSize::3                      0                       # Read request sizes (log2)
system.mem_ctrl.readPktSize::4                      0                       # Read request sizes (log2)
system.mem_ctrl.readPktSize::5                      0                       # Read request sizes (log2)
system.mem_ctrl.readPktSize::6                   3545                       # Read request sizes (log2)
system.mem_ctrl.writePktSize::0                     0                       # Write request sizes (log2)
system.mem_ctrl.writePktSize::1                     0                       # Write request sizes (log2)
system.mem_ctrl.writePktSize::2                     0                       # Write request sizes (log2)
system.mem_ctrl.writePktSize::3                     0                       # Write request sizes (log2)
system.mem_ctrl.writePktSize::4                     0                       # Write request sizes (log2)
system.mem_ctrl.writePktSize::5                     0                       # Write request sizes (log2)
system.mem_ctrl.writePktSize::6                     0                       # Write request sizes (log2)
system.mem_ctrl.rdQLenPdf::0                     3287                       # What read queue length does an incoming req see
system.mem_ctrl.rdQLenPdf::1                      247                       # What read queue length does an incoming req see
system.mem_ctrl.rdQLenPdf::2                       11                       # What read queue length does an incoming req see
system.mem_ctrl.rdQLenPdf::3                        0                       # What read queue length does an incoming req see
system.mem_ctrl.rdQLenPdf::4                        0                       # What read queue length does an incoming req see
system.mem_ctrl.rdQLenPdf::5                        0                       # What read queue length does an incoming req see
system.mem_ctrl.rdQLenPdf::6                        0                       # What read queue length does an incoming req see
system.mem_ctrl.rdQLenPdf::7                        0                       # What read queue length does an incoming req see
system.mem_ctrl.rdQLenPdf::8                        0                       # What read queue length does an incoming req see
system.mem_ctrl.rdQLenPdf::9                        0                       # What read queue length does an incoming req see
system.mem_ctrl.rdQLenPdf::10                       0                       # What read queue length does an incoming req see
system.mem_ctrl.rdQLenPdf::11                       0                       # What read queue length does an incoming req see
system.mem_ctrl.rdQLenPdf::12                       0                       # What read queue length does an incoming req see
system.mem_ctrl.rdQLenPdf::13                       0                       # What read queue length does an incoming req see
system.mem_ctrl.rdQLenPdf::14                       0                       # What read queue length does an incoming req see
system.mem_ctrl.rdQLenPdf::15                       0                       # What read queue length does an incoming req see
system.mem_ctrl.rdQLenPdf::16                       0                       # What read queue length does an incoming req see
system.mem_ctrl.rdQLenPdf::17                       0                       # What read queue length does an incoming req see
system.mem_ctrl.rdQLenPdf::18                       0                       # What read queue length does an incoming req see
system.mem_ctrl.rdQLenPdf::19                       0                       # What read queue length does an incoming req see
system.mem_ctrl.rdQLenPdf::20                       0                       # What read queue length does an incoming req see
system.mem_ctrl.rdQLenPdf::21                       0                       # What read queue length does an incoming req see
system.mem_ctrl.rdQLenPdf::22                       0                       # What read queue length does an incoming req see
system.mem_ctrl.rdQLenPdf::23                       0                       # What read queue length does an incoming req see
system.mem_ctrl.rdQLenPdf::24                       0                       # What read queue length does an incoming req see
system.mem_ctrl.rdQLenPdf::25                       0                       # What read queue length does an incoming req see
system.mem_ctrl.rdQLenPdf::26                       0                       # What read queue length does an incoming req see
system.mem_ctrl.rdQLenPdf::27                       0                       # What read queue length does an incoming req see
system.mem_ctrl.rdQLenPdf::28                       0                       # What read queue length does an incoming req see
system.mem_ctrl.rdQLenPdf::29                       0                       # What read queue length does an incoming req see
system.mem_ctrl.rdQLenPdf::30                       0                       # What read queue length does an incoming req see
system.mem_ctrl.rdQLenPdf::31                       0                       # What read queue length does an incoming req see
system.mem_ctrl.wrQLenPdf::0                        0                       # What write queue length does an incoming req see
system.mem_ctrl.wrQLenPdf::1                        0                       # What write queue length does an incoming req see
system.mem_ctrl.wrQLenPdf::2                        0                       # What write queue length does an incoming req see
system.mem_ctrl.wrQLenPdf::3                        0                       # What write queue length does an incoming req see
system.mem_ctrl.wrQLenPdf::4                        0                       # What write queue length does an incoming req see
system.mem_ctrl.wrQLenPdf::5                        0                       # What write queue length does an incoming req see
system.mem_ctrl.wrQLenPdf::6                        0                       # What write queue length does an incoming req see
system.mem_ctrl.wrQLenPdf::7                        0                       # What write queue length does an incoming req see
system.mem_ctrl.wrQLenPdf::8                        0                       # What write queue length does an incoming req see
system.mem_ctrl.wrQLenPdf::9                        0                       # What write queue length does an incoming req see
system.mem_ctrl.wrQLenPdf::10                       0                       # What write queue length does an incoming req see
system.mem_ctrl.wrQLenPdf::11                       0                       # What write queue length does an incoming req see
system.mem_ctrl.wrQLenPdf::12                       0                       # What write queue length does an incoming req see
system.mem_ctrl.wrQLenPdf::13                       0                       # What write queue length does an incoming req see
system.mem_ctrl.wrQLenPdf::14                       0                       # What write queue length does an incoming req see
system.mem_ctrl.wrQLenPdf::15                       0                       # What write queue length does an incoming req see
system.mem_ctrl.wrQLenPdf::16                       0                       # What write queue length does an incoming req see
system.mem_ctrl.wrQLenPdf::17                       0                       # What write queue length does an incoming req see
system.mem_ctrl.wrQLenPdf::18                       0                       # What write queue length does an incoming req see
system.mem_ctrl.wrQLenPdf::19                       0                       # What write queue length does an incoming req see
system.mem_ctrl.wrQLenPdf::20                       0                       # What write queue length does an incoming req see
system.mem_ctrl.wrQLenPdf::21                       0                       # What write queue length does an incoming req see
system.mem_ctrl.wrQLenPdf::22                       0                       # What write queue length does an incoming req see
system.mem_ctrl.wrQLenPdf::23                       0                       # What write queue length does an incoming req see
system.mem_ctrl.wrQLenPdf::24                       0                       # What write queue length does an incoming req see
system.mem_ctrl.wrQLenPdf::25                       0                       # What write queue length does an incoming req see
system.mem_ctrl.wrQLenPdf::26                       0                       # What write queue length does an incoming req see
system.mem_ctrl.wrQLenPdf::27                       0                       # What write queue length does an incoming req see
system.mem_ctrl.wrQLenPdf::28                       0                       # What write queue length does an incoming req see
system.mem_ctrl.wrQLenPdf::29                       0                       # What write queue length does an incoming req see
system.mem_ctrl.wrQLenPdf::30                       0                       # What write queue length does an incoming req see
system.mem_ctrl.wrQLenPdf::31                       0                       # What write queue length does an incoming req see
system.mem_ctrl.wrQLenPdf::32                       0                       # What write queue length does an incoming req see
system.mem_ctrl.wrQLenPdf::33                       0                       # What write queue length does an incoming req see
system.mem_ctrl.wrQLenPdf::34                       0                       # What write queue length does an incoming req see
system.mem_ctrl.wrQLenPdf::35                       0                       # What write queue length does an incoming req see
system.mem_ctrl.wrQLenPdf::36                       0                       # What write queue length does an incoming req see
system.mem_ctrl.wrQLenPdf::37                       0                       # What write queue length does an incoming req see
system.mem_ctrl.wrQLenPdf::38                       0                       # What write queue length does an incoming req see
system.mem_ctrl.wrQLenPdf::39                       0                       # What write queue length does an incoming req see
system.mem_ctrl.wrQLenPdf::40                       0                       # What write queue length does an incoming req see
system.mem_ctrl.wrQLenPdf::41                       0                       # What write queue length does an incoming req see
system.mem_ctrl.wrQLenPdf::42                       0                       # What write queue length does an incoming req see
system.mem_ctrl.wrQLenPdf::43                       0                       # What write queue length does an incoming req see
system.mem_ctrl.wrQLenPdf::44                       0                       # What write queue length does an incoming req see
system.mem_ctrl.wrQLenPdf::45                       0                       # What write queue length does an incoming req see
system.mem_ctrl.wrQLenPdf::46                       0                       # What write queue length does an incoming req see
system.mem_ctrl.wrQLenPdf::47                       0                       # What write queue length does an incoming req see
system.mem_ctrl.wrQLenPdf::48                       0                       # What write queue length does an incoming req see
system.mem_ctrl.wrQLenPdf::49                       0                       # What write queue length does an incoming req see
system.mem_ctrl.wrQLenPdf::50                       0                       # What write queue length does an incoming req see
system.mem_ctrl.wrQLenPdf::51                       0                       # What write queue length does an incoming req see
system.mem_ctrl.wrQLenPdf::52                       0                       # What write queue length does an incoming req see
system.mem_ctrl.wrQLenPdf::53                       0                       # What write queue length does an incoming req see
system.mem_ctrl.wrQLenPdf::54                       0                       # What write queue length does an incoming req see
system.mem_ctrl.wrQLenPdf::55                       0                       # What write queue length does an incoming req see
system.mem_ctrl.wrQLenPdf::56                       0                       # What write queue length does an incoming req see
system.mem_ctrl.wrQLenPdf::57                       0                       # What write queue length does an incoming req see
system.mem_ctrl.wrQLenPdf::58                       0                       # What write queue length does an incoming req see
system.mem_ctrl.wrQLenPdf::59                       0                       # What write queue length does an incoming req see
system.mem_ctrl.wrQLenPdf::60                       0                       # What write queue length does an incoming req see
system.mem_ctrl.wrQLenPdf::61                       0                       # What write queue length does an incoming req see
system.mem_ctrl.wrQLenPdf::62                       0                       # What write queue length does an incoming req see
system.mem_ctrl.wrQLenPdf::63                       0                       # What write queue length does an incoming req see
system.mem_ctrl.bytesPerActivate::samples          544                       # Bytes accessed per row activation
system.mem_ctrl.bytesPerActivate::mean     414.235294                       # Bytes accessed per row activation
system.mem_ctrl.bytesPerActivate::gmean    252.076352                       # Bytes accessed per row activation
system.mem_ctrl.bytesPerActivate::stdev    370.274901                       # Bytes accessed per row activation
system.mem_ctrl.bytesPerActivate::0-127           145     26.65%     26.65% # Bytes accessed per row activation
system.mem_ctrl.bytesPerActivate::128-255          108     19.85%     46.51% # Bytes accessed per row activation
system.mem_ctrl.bytesPerActivate::256-383           63     11.58%     58.09% # Bytes accessed per row activation
system.mem_ctrl.bytesPerActivate::384-511           43      7.90%     65.99% # Bytes accessed per row activation
system.mem_ctrl.bytesPerActivate::512-639           35      6.43%     72.43% # Bytes accessed per row activation
system.mem_ctrl.bytesPerActivate::640-767           16      2.94%     75.37% # Bytes accessed per row activation
system.mem_ctrl.bytesPerActivate::768-895           12      2.21%     77.57% # Bytes accessed per row activation
system.mem_ctrl.bytesPerActivate::896-1023           11      2.02%     79.60% # Bytes accessed per row activation
system.mem_ctrl.bytesPerActivate::1024-1151          111     20.40%    100.00% # Bytes accessed per row activation
system.mem_ctrl.bytesPerActivate::total           544                       # Bytes accessed per row activation
system.mem_ctrl.totQLat                      42869878                       # Total ticks spent queuing
system.mem_ctrl.totMemAccLat                102574768                       # Total ticks spent from burst creation until serviced by the DRAM
system.mem_ctrl.totBusLat                    13300840                       # Total ticks spent in databus transfers
system.mem_ctrl.avgQLat                      12093.05                       # Average queueing delay per DRAM burst
system.mem_ctrl.avgBusLat                     3752.00                       # Average bus latency per DRAM burst
system.mem_ctrl.avgMemAccLat                 28935.05                       # Average memory access latency per DRAM burst
system.mem_ctrl.avgRdBW                        545.09                       # Average DRAM read bandwidth in MiByte/s
system.mem_ctrl.avgWrBW                          0.00                       # Average achieved write bandwidth in MiByte/s
system.mem_ctrl.avgRdBWSys                     545.09                       # Average system read bandwidth in MiByte/s
system.mem_ctrl.avgWrBWSys                       0.00                       # Average system write bandwidth in MiByte/s
system.mem_ctrl.peakBW                       17057.00                       # Theoretical peak bandwidth in MiByte/s
system.mem_ctrl.busUtil                          3.20                       # Data bus utilization in percentage
system.mem_ctrl.busUtilRead                      3.20                       # Data bus utilization in percentage for reads
system.mem_ctrl.busUtilWrite                     0.00                       # Data bus utilization in percentage for writes
system.mem_ctrl.avgRdQLen                        1.05                       # Average read queue length when enqueuing
system.mem_ctrl.avgWrQLen                        0.00                       # Average write queue length when enqueuing
system.mem_ctrl.readRowHits                      2995                       # Number of row buffer hits during reads
system.mem_ctrl.writeRowHits                        0                       # Number of row buffer hits during writes
system.mem_ctrl.readRowHitRate                  84.49                       # Row buffer hit rate for reads
system.mem_ctrl.writeRowHitRate                   nan                       # Row buffer hit rate for writes
system.mem_ctrl.avgGap                      117391.93                       # Average gap between requests
system.mem_ctrl.pageHitRate                     84.49                       # Row buffer hit rate, read and write combined
system.mem_ctrl_0.actEnergy              3181756.032000                       # Energy for activate commands per rank (pJ)
system.mem_ctrl_0.preEnergy              1560081.600000                       # Energy for precharge commands per rank (pJ)
system.mem_ctrl_0.readEnergy             12515636.448000                       # Energy for read commands per rank (pJ)
system.mem_ctrl_0.writeEnergy                       0                       # Energy for write commands per rank (pJ)
system.mem_ctrl_0.refreshEnergy          33519647.616000                       # Energy for refresh commands per rank (pJ)
system.mem_ctrl_0.actBackEnergy          32202065.280000                       # Energy for active background per rank (pJ)
system.mem_ctrl_0.preBackEnergy          1096154.304000                       # Energy for precharge background per rank (pJ)
system.mem_ctrl_0.actPowerDownEnergy     156328100.544000                       # Energy for active power-down per rank (pJ)
system.mem_ctrl_0.prePowerDownEnergy     17882643.576000                       # Energy for precharge power-down per rank (pJ)
system.mem_ctrl_0.selfRefreshEnergy      6452569.536000                       # Energy for self refresh per rank (pJ)
system.mem_ctrl_0.totalEnergy            264738654.936000                       # Total energy per rank (pJ)
system.mem_ctrl_0.averagePower             636.046514                       # Core power per rank (mW)
system.mem_ctrl_0.totalIdleTime             352534420                       # Total Idle time Per DRAM Rank
system.mem_ctrl_0.memoryStateTime::IDLE        897600                       # Time in different power states
system.mem_ctrl_0.memoryStateTime::REF       13532000                       # Time in different power states
system.mem_ctrl_0.memoryStateTime::SREF      22034320                       # Time in different power states
system.mem_ctrl_0.memoryStateTime::PRE_PDN     34655026                       # Time in different power states
system.mem_ctrl_0.memoryStateTime::ACT       49035622                       # Time in different power states
system.mem_ctrl_0.memoryStateTime::ACT_PDN    296070632                       # Time in different power states
system.mem_ctrl_1.actEnergy              2612832.768000                       # Energy for activate commands per rank (pJ)
system.mem_ctrl_1.preEnergy              1268866.368000                       # Energy for precharge commands per rank (pJ)
system.mem_ctrl_1.readEnergy             10947045.312000                       # Energy for read commands per rank (pJ)
system.mem_ctrl_1.writeEnergy                       0                       # Energy for write commands per rank (pJ)
system.mem_ctrl_1.refreshEnergy          30941213.184000                       # Energy for refresh commands per rank (pJ)
system.mem_ctrl_1.actBackEnergy          29297341.920000                       # Energy for active background per rank (pJ)
system.mem_ctrl_1.preBackEnergy          2785364.736000                       # Energy for precharge background per rank (pJ)
system.mem_ctrl_1.actPowerDownEnergy     141259693.344000                       # Energy for active power-down per rank (pJ)
system.mem_ctrl_1.prePowerDownEnergy     13207610.304000                       # Energy for precharge power-down per rank (pJ)
system.mem_ctrl_1.selfRefreshEnergy      16494857.568000                       # Energy for self refresh per rank (pJ)
system.mem_ctrl_1.totalEnergy            248865229.872000                       # Total energy per rank (pJ)
system.mem_ctrl_1.averagePower             597.909897                       # Core power per rank (mW)
system.mem_ctrl_1.totalIdleTime             354335498                       # Total Idle time Per DRAM Rank
system.mem_ctrl_1.memoryStateTime::IDLE       4703200                       # Time in different power states
system.mem_ctrl_1.memoryStateTime::REF       12516000                       # Time in different power states
system.mem_ctrl_1.memoryStateTime::SREF      61233270                       # Time in different power states
system.mem_ctrl_1.memoryStateTime::PRE_PDN     25597838                       # Time in different power states
system.mem_ctrl_1.memoryStateTime::ACT       44632144                       # Time in different power states
system.mem_ctrl_1.memoryStateTime::ACT_PDN    267542748                       # Time in different power states
system.pwrStateResidencyTicks::UNDEFINED    416225200                       # Cumulative time (in ticks) in various power states
system.cpu.branchPred.lookups                      79                       # Number of BP lookups
system.cpu.branchPred.condPredicted                79                       # Number of conditional branches predicted
system.cpu.branchPred.condIncorrect                31                       # Number of conditional branches incorrect
system.cpu.branchPred.BTBLookups                   34                       # Number of BTB lookups
system.cpu.branchPred.BTBHits                       0                       # Number of BTB hits
system.cpu.branchPred.BTBCorrect                    0                       # Number of correct BTB predictions (this stat may not work properly.
system.cpu.branchPred.BTBHitPct              0.000000                       # BTB Hit Percentage
system.cpu.branchPred.usedRAS                       0                       # Number of times the RAS was used to get a target.
system.cpu.branchPred.RASInCorrect                  0                       # Number of incorrect RAS predictions.
system.cpu.branchPred.indirectLookups              34                       # Number of indirect predictor lookups.
system.cpu.branchPred.indirectHits                  0                       # Number of indirect target hits.
system.cpu.branchPred.indirectMisses               34                       # Number of indirect misses.
system.cpu.branchPredindirectMispredicted           11                       # Number of mispredicted indirect branches.
system.cpu.dtb.walker.pwrStateResidencyTicks::UNDEFINED    416225200                       # Cumulative time (in ticks) in various power states
system.cpu.dtb.rdAccesses                       67471                       # TLB accesses on read requests
system.cpu.dtb.wrAccesses                       17121                       # TLB accesses on write requests
system.cpu.dtb.rdMisses                          1692                       # TLB misses on read requests
system.cpu.dtb.wrMisses                            23                       # TLB misses on write requests
system.cpu.apic_clk_domain.clock                 6400                       # Clock period in ticks
system.cpu.interrupts.pwrStateResidencyTicks::UNDEFINED    416225200                       # Cumulative time (in ticks) in various power states
system.cpu.itb.walker.pwrStateResidencyTicks::UNDEFINED    416225200                       # Cumulative time (in ticks) in various power states
system.cpu.itb.rdAccesses                           0                       # TLB accesses on read requests
system.cpu.itb.wrAccesses                       69777                       # TLB accesses on write requests
system.cpu.itb.rdMisses                             0                       # TLB misses on read requests
system.cpu.itb.wrMisses                            89                       # TLB misses on write requests
system.cpu.workload.numSyscalls                    32                       # Number of system calls
system.cpu.pwrStateResidencyTicks::ON       416225200                       # Cumulative time (in ticks) in various power states
system.cpu.numCycles                          1040563                       # number of cpu cycles simulated
system.cpu.numWorkItemsStarted                      0                       # number of work items this cpu started
system.cpu.numWorkItemsCompleted                    0                       # number of work items this cpu completed
system.cpu.committedInsts                      180286                       # Number of instructions committed
system.cpu.committedOps                        330274                       # Number of ops (including micro ops) committed
system.cpu.discardedOps                         73806                       # Number of ops (including micro ops) which were discarded before commit
system.cpu.numFetchSuspends                         0                       # Number of times Execute suspended instruction fetching
system.cpu.cpi                               5.771735                       # CPI: cycles per instruction
system.cpu.ipc                               0.173258                       # IPC: instructions per cycle
system.cpu.op_class_0::No_OpClass                1287      0.39%      0.39% # Class of committed instruction
system.cpu.op_class_0::IntAlu                  253310     76.70%     77.09% # Class of committed instruction
system.cpu.op_class_0::IntMult                     61      0.02%     77.11% # Class of committed instruction
system.cpu.op_class_0::IntDiv                    1131      0.34%     77.45% # Class of committed instruction
system.cpu.op_class_0::FloatAdd                  2227      0.67%     78.12% # Class of committed instruction
system.cpu.op_class_0::FloatCmp                     0      0.00%     78.12% # Class of committed instruction
system.cpu.op_class_0::FloatCvt                     0      0.00%     78.12% # Class of committed instruction
system.cpu.op_class_0::FloatMult                    0      0.00%     78.12% # Class of committed instruction
system.cpu.op_class_0::FloatMultAcc                 0      0.00%     78.12% # Class of committed instruction
system.cpu.op_class_0::FloatDiv                     0      0.00%     78.12% # Class of committed instruction
system.cpu.op_class_0::FloatMisc                    0      0.00%     78.12% # Class of committed instruction
system.cpu.op_class_0::FloatSqrt                    0      0.00%     78.12% # Class of committed instruction
system.cpu.op_class_0::SimdAdd                      0      0.00%     78.12% # Class of committed instruction
system.cpu.op_class_0::SimdAddAcc                   0      0.00%     78.12% # Class of committed instruction
system.cpu.op_class_0::SimdAlu                      0      0.00%     78.12% # Class of committed instruction
system.cpu.op_class_0::SimdCmp                      0      0.00%     78.12% # Class of committed instruction
system.cpu.op_class_0::SimdCvt                      0      0.00%     78.12% # Class of committed instruction
system.cpu.op_class_0::SimdMisc                     0      0.00%     78.12% # Class of committed instruction
system.cpu.op_class_0::SimdMult                     0      0.00%     78.12% # Class of committed instruction
system.cpu.op_class_0::SimdMultAcc                  0      0.00%     78.12% # Class of committed instruction
system.cpu.op_class_0::SimdShift                    0      0.00%     78.12% # Class of committed instruction
system.cpu.op_class_0::SimdShiftAcc                 0      0.00%     78.12% # Class of committed instruction
system.cpu.op_class_0::SimdSqrt                     0      0.00%     78.12% # Class of committed instruction
system.cpu.op_class_0::SimdFloatAdd                 0      0.00%     78.12% # Class of committed instruction
system.cpu.op_class_0::SimdFloatAlu                 0      0.00%     78.12% # Class of committed instruction
system.cpu.op_class_0::SimdFloatCmp                 0      0.00%     78.12% # Class of committed instruction
system.cpu.op_class_0::SimdFloatCvt                 0      0.00%     78.12% # Class of committed instruction
system.cpu.op_class_0::SimdFloatDiv                 0      0.00%     78.12% # Class of committed instruction
system.cpu.op_class_0::SimdFloatMisc                0      0.00%     78.12% # Class of committed instruction
system.cpu.op_class_0::SimdFloatMult                0      0.00%     78.12% # Class of committed instruction
system.cpu.op_class_0::SimdFloatMultAcc             0      0.00%     78.12% # Class of committed instruction
system.cpu.op_class_0::SimdFloatSqrt                0      0.00%     78.12% # Class of committed instruction
system.cpu.op_class_0::MemRead                  54608     16.53%     94.66% # Class of committed instruction
system.cpu.op_class_0::MemWrite                 16484      4.99%     99.65% # Class of committed instruction
system.cpu.op_class_0::FloatMemRead               782      0.24%     99.88% # Class of committed instruction
system.cpu.op_class_0::FloatMemWrite              384      0.12%    100.00% # Class of committed instruction
system.cpu.op_class_0::IprAccess                    0      0.00%    100.00% # Class of committed instruction
system.cpu.op_class_0::InstPrefetch                 0      0.00%    100.00% # Class of committed instruction
system.cpu.op_class_0::total                   330274                       # Class of committed instruction
system.cpu.tickCycles                          490616                       # Number of cycles that the object actually ticked
system.cpu.idleCycles                          549947                       # Total number of cycles that the object has spent stopped
system.cpu.dcache.tags.pwrStateResidencyTicks::UNDEFINED    416225200                       # Cumulative time (in ticks) in various power states
system.cpu.dcache.tags.replacements               853                       # number of replacements
system.cpu.dcache.tags.tagsinuse          1149.304270                       # Cycle average of tags in use
system.cpu.dcache.tags.total_refs               79477                       # Total number of references to valid blocks.
system.cpu.dcache.tags.sampled_refs              2611                       # Sample count of references to valid blocks.
system.cpu.dcache.tags.avg_refs             30.439295                       # Average number of references to valid blocks.
system.cpu.dcache.tags.warmup_cycle                 0                       # Cycle when the warmup percentage was hit.
system.cpu.dcache.tags.occ_blocks::cpu.data  1149.304270                       # Average occupied blocks per requestor
system.cpu.dcache.tags.occ_percent::cpu.data     0.561184                       # Average percentage of cache occupancy
system.cpu.dcache.tags.occ_percent::total     0.561184                       # Average percentage of cache occupancy
system.cpu.dcache.tags.occ_task_id_blocks::1024         1758                       # Occupied blocks per task id
system.cpu.dcache.tags.age_task_id_blocks_1024::0           31                       # Occupied blocks per task id
system.cpu.dcache.tags.age_task_id_blocks_1024::1          297                       # Occupied blocks per task id
system.cpu.dcache.tags.age_task_id_blocks_1024::2         1430                       # Occupied blocks per task id
system.cpu.dcache.tags.occ_task_id_percent::1024     0.858398                       # Percentage of cache occupancy per task id
system.cpu.dcache.tags.tag_accesses             85090                       # Number of tag accesses
system.cpu.dcache.tags.data_accesses            85090                       # Number of data accesses
system.cpu.dcache.pwrStateResidencyTicks::UNDEFINED    416225200                       # Cumulative time (in ticks) in various power states
system.cpu.dcache.ReadReq_hits::cpu.data        63550                       # number of ReadReq hits
system.cpu.dcache.ReadReq_hits::total           63550                       # number of ReadReq hits
system.cpu.dcache.WriteReq_hits::cpu.data        15927                       # number of WriteReq hits
system.cpu.dcache.WriteReq_hits::total          15927                       # number of WriteReq hits
system.cpu.dcache.demand_hits::cpu.data         79477                       # number of demand (read+write) hits
system.cpu.dcache.demand_hits::total            79477                       # number of demand (read+write) hits
system.cpu.dcache.overall_hits::cpu.data        79477                       # number of overall hits
system.cpu.dcache.overall_hits::total           79477                       # number of overall hits
system.cpu.dcache.ReadReq_misses::cpu.data         2061                       # number of ReadReq misses
system.cpu.dcache.ReadReq_misses::total          2061                       # number of ReadReq misses
system.cpu.dcache.WriteReq_misses::cpu.data          941                       # number of WriteReq misses
system.cpu.dcache.WriteReq_misses::total          941                       # number of WriteReq misses
system.cpu.dcache.demand_misses::cpu.data         3002                       # number of demand (read+write) misses
system.cpu.dcache.demand_misses::total           3002                       # number of demand (read+write) misses
system.cpu.dcache.overall_misses::cpu.data         3002                       # number of overall misses
system.cpu.dcache.overall_misses::total          3002                       # number of overall misses
system.cpu.dcache.ReadReq_miss_latency::cpu.data    139256000                       # number of ReadReq miss cycles
system.cpu.dcache.ReadReq_miss_latency::total    139256000                       # number of ReadReq miss cycles
system.cpu.dcache.WriteReq_miss_latency::cpu.data     61432400                       # number of WriteReq miss cycles
system.cpu.dcache.WriteReq_miss_latency::total     61432400                       # number of WriteReq miss cycles
system.cpu.dcache.demand_miss_latency::cpu.data    200688400                       # number of demand (read+write) miss cycles
system.cpu.dcache.demand_miss_latency::total    200688400                       # number of demand (read+write) miss cycles
system.cpu.dcache.overall_miss_latency::cpu.data    200688400                       # number of overall miss cycles
system.cpu.dcache.overall_miss_latency::total    200688400                       # number of overall miss cycles
system.cpu.dcache.ReadReq_accesses::cpu.data        65611                       # number of ReadReq accesses(hits+misses)
system.cpu.dcache.ReadReq_accesses::total        65611                       # number of ReadReq accesses(hits+misses)
system.cpu.dcache.WriteReq_accesses::cpu.data        16868                       # number of WriteReq accesses(hits+misses)
system.cpu.dcache.WriteReq_accesses::total        16868                       # number of WriteReq accesses(hits+misses)
system.cpu.dcache.demand_accesses::cpu.data        82479                       # number of demand (read+write) accesses
system.cpu.dcache.demand_accesses::total        82479                       # number of demand (read+write) accesses
system.cpu.dcache.overall_accesses::cpu.data        82479                       # number of overall (read+write) accesses
system.cpu.dcache.overall_accesses::total        82479                       # number of overall (read+write) accesses
system.cpu.dcache.ReadReq_miss_rate::cpu.data     0.031412                       # miss rate for ReadReq accesses
system.cpu.dcache.ReadReq_miss_rate::total     0.031412                       # miss rate for ReadReq accesses
system.cpu.dcache.WriteReq_miss_rate::cpu.data     0.055786                       # miss rate for WriteReq accesses
system.cpu.dcache.WriteReq_miss_rate::total     0.055786                       # miss rate for WriteReq accesses
system.cpu.dcache.demand_miss_rate::cpu.data     0.036397                       # miss rate for demand accesses
system.cpu.dcache.demand_miss_rate::total     0.036397                       # miss rate for demand accesses
system.cpu.dcache.overall_miss_rate::cpu.data     0.036397                       # miss rate for overall accesses
system.cpu.dcache.overall_miss_rate::total     0.036397                       # miss rate for overall accesses
system.cpu.dcache.ReadReq_avg_miss_latency::cpu.data 67567.200388                       # average ReadReq miss latency
system.cpu.dcache.ReadReq_avg_miss_latency::total 67567.200388                       # average ReadReq miss latency
system.cpu.dcache.WriteReq_avg_miss_latency::cpu.data 65284.165781                       # average WriteReq miss latency
system.cpu.dcache.WriteReq_avg_miss_latency::total 65284.165781                       # average WriteReq miss latency
system.cpu.dcache.demand_avg_miss_latency::cpu.data 66851.565623                       # average overall miss latency
system.cpu.dcache.demand_avg_miss_latency::total 66851.565623                       # average overall miss latency
system.cpu.dcache.overall_avg_miss_latency::cpu.data 66851.565623                       # average overall miss latency
system.cpu.dcache.overall_avg_miss_latency::total 66851.565623                       # average overall miss latency
system.cpu.dcache.blocked_cycles::no_mshrs            0                       # number of cycles access was blocked
system.cpu.dcache.blocked_cycles::no_targets            0                       # number of cycles access was blocked
system.cpu.dcache.blocked::no_mshrs                 0                       # number of cycles access was blocked
system.cpu.dcache.blocked::no_targets               0                       # number of cycles access was blocked
system.cpu.dcache.avg_blocked_cycles::no_mshrs          nan                       # average number of cycles each access was blocked
system.cpu.dcache.avg_blocked_cycles::no_targets          nan                       # average number of cycles each access was blocked
system.cpu.dcache.writebacks::writebacks          470                       # number of writebacks
system.cpu.dcache.writebacks::total               470                       # number of writebacks
system.cpu.dcache.ReadReq_mshr_hits::cpu.data           18                       # number of ReadReq MSHR hits
system.cpu.dcache.ReadReq_mshr_hits::total           18                       # number of ReadReq MSHR hits
system.cpu.dcache.WriteReq_mshr_hits::cpu.data          373                       # number of WriteReq MSHR hits
system.cpu.dcache.WriteReq_mshr_hits::total          373                       # number of WriteReq MSHR hits
system.cpu.dcache.demand_mshr_hits::cpu.data          391                       # number of demand (read+write) MSHR hits
system.cpu.dcache.demand_mshr_hits::total          391                       # number of demand (read+write) MSHR hits
system.cpu.dcache.overall_mshr_hits::cpu.data          391                       # number of overall MSHR hits
system.cpu.dcache.overall_mshr_hits::total          391                       # number of overall MSHR hits
system.cpu.dcache.ReadReq_mshr_misses::cpu.data         2043                       # number of ReadReq MSHR misses
system.cpu.dcache.ReadReq_mshr_misses::total         2043                       # number of ReadReq MSHR misses
system.cpu.dcache.WriteReq_mshr_misses::cpu.data          568                       # number of WriteReq MSHR misses
system.cpu.dcache.WriteReq_mshr_misses::total          568                       # number of WriteReq MSHR misses
system.cpu.dcache.demand_mshr_misses::cpu.data         2611                       # number of demand (read+write) MSHR misses
system.cpu.dcache.demand_mshr_misses::total         2611                       # number of demand (read+write) MSHR misses
system.cpu.dcache.overall_mshr_misses::cpu.data         2611                       # number of overall MSHR misses
system.cpu.dcache.overall_mshr_misses::total         2611                       # number of overall MSHR misses
system.cpu.dcache.ReadReq_mshr_miss_latency::cpu.data    136038000                       # number of ReadReq MSHR miss cycles
system.cpu.dcache.ReadReq_mshr_miss_latency::total    136038000                       # number of ReadReq MSHR miss cycles
system.cpu.dcache.WriteReq_mshr_miss_latency::cpu.data     38078400                       # number of WriteReq MSHR miss cycles
system.cpu.dcache.WriteReq_mshr_miss_latency::total     38078400                       # number of WriteReq MSHR miss cycles
system.cpu.dcache.demand_mshr_miss_latency::cpu.data    174116400                       # number of demand (read+write) MSHR miss cycles
system.cpu.dcache.demand_mshr_miss_latency::total    174116400                       # number of demand (read+write) MSHR miss cycles
system.cpu.dcache.overall_mshr_miss_latency::cpu.data    174116400                       # number of overall MSHR miss cycles
system.cpu.dcache.overall_mshr_miss_latency::total    174116400                       # number of overall MSHR miss cycles
system.cpu.dcache.ReadReq_mshr_miss_rate::cpu.data     0.031138                       # mshr miss rate for ReadReq accesses
system.cpu.dcache.ReadReq_mshr_miss_rate::total     0.031138                       # mshr miss rate for ReadReq accesses
system.cpu.dcache.WriteReq_mshr_miss_rate::cpu.data     0.033673                       # mshr miss rate for WriteReq accesses
system.cpu.dcache.WriteReq_mshr_miss_rate::total     0.033673                       # mshr miss rate for WriteReq accesses
system.cpu.dcache.demand_mshr_miss_rate::cpu.data     0.031657                       # mshr miss rate for demand accesses
system.cpu.dcache.demand_mshr_miss_rate::total     0.031657                       # mshr miss rate for demand accesses
system.cpu.dcache.overall_mshr_miss_rate::cpu.data     0.031657                       # mshr miss rate for overall accesses
system.cpu.dcache.overall_mshr_miss_rate::total     0.031657                       # mshr miss rate for overall accesses
system.cpu.dcache.ReadReq_avg_mshr_miss_latency::cpu.data 66587.371512                       # average ReadReq mshr miss latency
system.cpu.dcache.ReadReq_avg_mshr_miss_latency::total 66587.371512                       # average ReadReq mshr miss latency
system.cpu.dcache.WriteReq_avg_mshr_miss_latency::cpu.data 67039.436620                       # average WriteReq mshr miss latency
system.cpu.dcache.WriteReq_avg_mshr_miss_latency::total 67039.436620                       # average WriteReq mshr miss latency
system.cpu.dcache.demand_avg_mshr_miss_latency::cpu.data 66685.714286                       # average overall mshr miss latency
system.cpu.dcache.demand_avg_mshr_miss_latency::total 66685.714286                       # average overall mshr miss latency
system.cpu.dcache.overall_avg_mshr_miss_latency::cpu.data 66685.714286                       # average overall mshr miss latency
system.cpu.dcache.overall_avg_mshr_miss_latency::total 66685.714286                       # average overall mshr miss latency
system.cpu.icache.tags.pwrStateResidencyTicks::UNDEFINED    416225200                       # Cumulative time (in ticks) in various power states
system.cpu.icache.tags.replacements               442                       # number of replacements
system.cpu.icache.tags.tagsinuse           580.507011                       # Cycle average of tags in use
system.cpu.icache.tags.total_refs               68548                       # Total number of references to valid blocks.
system.cpu.icache.tags.sampled_refs              1228                       # Sample count of references to valid blocks.
system.cpu.icache.tags.avg_refs             55.820847                       # Average number of references to valid blocks.
system.cpu.icache.tags.warmup_cycle                 0                       # Cycle when the warmup percentage was hit.
system.cpu.icache.tags.occ_blocks::cpu.inst   580.507011                       # Average occupied blocks per requestor
system.cpu.icache.tags.occ_percent::cpu.inst     0.566901                       # Average percentage of cache occupancy
system.cpu.icache.tags.occ_percent::total     0.566901                       # Average percentage of cache occupancy
system.cpu.icache.tags.occ_task_id_blocks::1024          786                       # Occupied blocks per task id
system.cpu.icache.tags.age_task_id_blocks_1024::0          118                       # Occupied blocks per task id
system.cpu.icache.tags.age_task_id_blocks_1024::1          161                       # Occupied blocks per task id
system.cpu.icache.tags.age_task_id_blocks_1024::2          507                       # Occupied blocks per task id
system.cpu.icache.tags.occ_task_id_percent::1024     0.767578                       # Percentage of cache occupancy per task id
system.cpu.icache.tags.tag_accesses             71005                       # Number of tag accesses
system.cpu.icache.tags.data_accesses            71005                       # Number of data accesses
system.cpu.icache.pwrStateResidencyTicks::UNDEFINED    416225200                       # Cumulative time (in ticks) in various power states
system.cpu.icache.ReadReq_hits::cpu.inst        68548                       # number of ReadReq hits
system.cpu.icache.ReadReq_hits::total           68548                       # number of ReadReq hits
system.cpu.icache.demand_hits::cpu.inst         68548                       # number of demand (read+write) hits
system.cpu.icache.demand_hits::total            68548                       # number of demand (read+write) hits
system.cpu.icache.overall_hits::cpu.inst        68548                       # number of overall hits
system.cpu.icache.overall_hits::total           68548                       # number of overall hits
system.cpu.icache.ReadReq_misses::cpu.inst         1229                       # number of ReadReq misses
system.cpu.icache.ReadReq_misses::total          1229                       # number of ReadReq misses
system.cpu.icache.demand_misses::cpu.inst         1229                       # number of demand (read+write) misses
system.cpu.icache.demand_misses::total           1229                       # number of demand (read+write) misses
system.cpu.icache.overall_misses::cpu.inst         1229                       # number of overall misses
system.cpu.icache.overall_misses::total          1229                       # number of overall misses
system.cpu.icache.ReadReq_miss_latency::cpu.inst     80849600                       # number of ReadReq miss cycles
system.cpu.icache.ReadReq_miss_latency::total     80849600                       # number of ReadReq miss cycles
system.cpu.icache.demand_miss_latency::cpu.inst     80849600                       # number of demand (read+write) miss cycles
system.cpu.icache.demand_miss_latency::total     80849600                       # number of demand (read+write) miss cycles
system.cpu.icache.overall_miss_latency::cpu.inst     80849600                       # number of overall miss cycles
system.cpu.icache.overall_miss_latency::total     80849600                       # number of overall miss cycles
system.cpu.icache.ReadReq_accesses::cpu.inst        69777                       # number of ReadReq accesses(hits+misses)
system.cpu.icache.ReadReq_accesses::total        69777                       # number of ReadReq accesses(hits+misses)
system.cpu.icache.demand_accesses::cpu.inst        69777                       # number of demand (read+write) accesses
system.cpu.icache.demand_accesses::total        69777                       # number of demand (read+write) accesses
system.cpu.icache.overall_accesses::cpu.inst        69777                       # number of overall (read+write) accesses
system.cpu.icache.overall_accesses::total        69777                       # number of overall (read+write) accesses
system.cpu.icache.ReadReq_miss_rate::cpu.inst     0.017613                       # miss rate for ReadReq accesses
system.cpu.icache.ReadReq_miss_rate::total     0.017613                       # miss rate for ReadReq accesses
system.cpu.icache.demand_miss_rate::cpu.inst     0.017613                       # miss rate for demand accesses
system.cpu.icache.demand_miss_rate::total     0.017613                       # miss rate for demand accesses
system.cpu.icache.overall_miss_rate::cpu.inst     0.017613                       # miss rate for overall accesses
system.cpu.icache.overall_miss_rate::total     0.017613                       # miss rate for overall accesses
system.cpu.icache.ReadReq_avg_miss_latency::cpu.inst 65784.865745                       # average ReadReq miss latency
system.cpu.icache.ReadReq_avg_miss_latency::total 65784.865745                       # average ReadReq miss latency
system.cpu.icache.demand_avg_miss_latency::cpu.inst 65784.865745                       # average overall miss latency
system.cpu.icache.demand_avg_miss_latency::total 65784.865745                       # average overall miss latency
system.cpu.icache.overall_avg_miss_latency::cpu.inst 65784.865745                       # average overall miss latency
system.cpu.icache.overall_avg_miss_latency::total 65784.865745                       # average overall miss latency
system.cpu.icache.blocked_cycles::no_mshrs            0                       # number of cycles access was blocked
system.cpu.icache.blocked_cycles::no_targets            0                       # number of cycles access was blocked
system.cpu.icache.blocked::no_mshrs                 0                       # number of cycles access was blocked
system.cpu.icache.blocked::no_targets               0                       # number of cycles access was blocked
system.cpu.icache.avg_blocked_cycles::no_mshrs          nan                       # average number of cycles each access was blocked
system.cpu.icache.avg_blocked_cycles::no_targets          nan                       # average number of cycles each access was blocked
system.cpu.icache.ReadReq_mshr_misses::cpu.inst         1229                       # number of ReadReq MSHR misses
system.cpu.icache.ReadReq_mshr_misses::total         1229                       # number of ReadReq MSHR misses
system.cpu.icache.demand_mshr_misses::cpu.inst         1229                       # number of demand (read+write) MSHR misses
system.cpu.icache.demand_mshr_misses::total         1229                       # number of demand (read+write) MSHR misses
system.cpu.icache.overall_mshr_misses::cpu.inst         1229                       # number of overall MSHR misses
system.cpu.icache.overall_mshr_misses::total         1229                       # number of overall MSHR misses
system.cpu.icache.ReadReq_mshr_miss_latency::cpu.inst     79867200                       # number of ReadReq MSHR miss cycles
system.cpu.icache.ReadReq_mshr_miss_latency::total     79867200                       # number of ReadReq MSHR miss cycles
system.cpu.icache.demand_mshr_miss_latency::cpu.inst     79867200                       # number of demand (read+write) MSHR miss cycles
system.cpu.icache.demand_mshr_miss_latency::total     79867200                       # number of demand (read+write) MSHR miss cycles
system.cpu.icache.overall_mshr_miss_latency::cpu.inst     79867200                       # number of overall MSHR miss cycles
system.cpu.icache.overall_mshr_miss_latency::total     79867200                       # number of overall MSHR miss cycles
system.cpu.icache.ReadReq_mshr_miss_rate::cpu.inst     0.017613                       # mshr miss rate for ReadReq accesses
system.cpu.icache.ReadReq_mshr_miss_rate::total     0.017613                       # mshr miss rate for ReadReq accesses
system.cpu.icache.demand_mshr_miss_rate::cpu.inst     0.017613                       # mshr miss rate for demand accesses
system.cpu.icache.demand_mshr_miss_rate::total     0.017613                       # mshr miss rate for demand accesses
system.cpu.icache.overall_mshr_miss_rate::cpu.inst     0.017613                       # mshr miss rate for overall accesses
system.cpu.icache.overall_mshr_miss_rate::total     0.017613                       # mshr miss rate for overall accesses
system.cpu.icache.ReadReq_avg_mshr_miss_latency::cpu.inst 64985.516680                       # average ReadReq mshr miss latency
system.cpu.icache.ReadReq_avg_mshr_miss_latency::total 64985.516680                       # average ReadReq mshr miss latency
system.cpu.icache.demand_avg_mshr_miss_latency::cpu.inst 64985.516680                       # average overall mshr miss latency
system.cpu.icache.demand_avg_mshr_miss_latency::total 64985.516680                       # average overall mshr miss latency
system.cpu.icache.overall_avg_mshr_miss_latency::cpu.inst 64985.516680                       # average overall mshr miss latency
system.cpu.icache.overall_avg_mshr_miss_latency::total 64985.516680                       # average overall mshr miss latency
system.l2bus.snoop_filter.tot_requests           5135                       # Total number of requests made to the snoop filter.
system.l2bus.snoop_filter.hit_single_requests         1300                       # Number of requests hitting in the snoop filter with a single holder of the requested data.
system.l2bus.snoop_filter.hit_multi_requests            1                       # Number of requests hitting in the snoop filter with multiple (>1) holders of the requested data.
system.l2bus.snoop_filter.tot_snoops                0                       # Total number of snoops made to the snoop filter.
system.l2bus.snoop_filter.hit_single_snoops            0                       # Number of snoops hitting in the snoop filter with a single holder of the requested data.
system.l2bus.snoop_filter.hit_multi_snoops            0                       # Number of snoops hitting in the snoop filter with multiple (>1) holders of the requested data.
system.l2bus.pwrStateResidencyTicks::UNDEFINED    416225200                       # Cumulative time (in ticks) in various power states
system.l2bus.trans_dist::ReadResp                3271                       # Transaction distribution
system.l2bus.trans_dist::WritebackDirty           470                       # Transaction distribution
system.l2bus.trans_dist::CleanEvict               825                       # Transaction distribution
system.l2bus.trans_dist::ReadExReq                568                       # Transaction distribution
system.l2bus.trans_dist::ReadExResp               568                       # Transaction distribution
system.l2bus.trans_dist::ReadSharedReq           3272                       # Transaction distribution
system.l2bus.pkt_count_system.cpu.icache.mem_side::system.l2cache.cpu_side         2899                       # Packet count per connected master and slave (bytes)
system.l2bus.pkt_count_system.cpu.dcache.mem_side::system.l2cache.cpu_side         6075                       # Packet count per connected master and slave (bytes)
system.l2bus.pkt_count::total                    8974                       # Packet count per connected master and slave (bytes)
system.l2bus.pkt_size_system.cpu.icache.mem_side::system.l2cache.cpu_side        78592                       # Cumulative packet size per connected master and slave (bytes)
system.l2bus.pkt_size_system.cpu.dcache.mem_side::system.l2cache.cpu_side       197184                       # Cumulative packet size per connected master and slave (bytes)
system.l2bus.pkt_size::total                   275776                       # Cumulative packet size per connected master and slave (bytes)
system.l2bus.snoops                                 0                       # Total snoops (count)
system.l2bus.snoopTraffic                           0                       # Total snoop traffic (bytes)
system.l2bus.snoop_fanout::samples               3840                       # Request fanout histogram
system.l2bus.snoop_fanout::mean              0.001563                       # Request fanout histogram
system.l2bus.snoop_fanout::stdev             0.039503                       # Request fanout histogram
system.l2bus.snoop_fanout::underflows               0      0.00%      0.00% # Request fanout histogram
system.l2bus.snoop_fanout::0                     3834     99.84%     99.84% # Request fanout histogram
system.l2bus.snoop_fanout::1                        6      0.16%    100.00% # Request fanout histogram
system.l2bus.snoop_fanout::2                        0      0.00%    100.00% # Request fanout histogram
system.l2bus.snoop_fanout::overflows                0      0.00%    100.00% # Request fanout histogram
system.l2bus.snoop_fanout::min_value                0                       # Request fanout histogram
system.l2bus.snoop_fanout::max_value                1                       # Request fanout histogram
system.l2bus.snoop_fanout::total                 3840                       # Request fanout histogram
system.l2bus.reqLayer0.occupancy              2430000                       # Layer occupancy (ticks)
system.l2bus.reqLayer0.utilization                0.6                       # Layer utilization (%)
system.l2bus.respLayer0.occupancy             1473600                       # Layer occupancy (ticks)
system.l2bus.respLayer0.utilization               0.4                       # Layer utilization (%)
system.l2bus.respLayer1.occupancy             3133200                       # Layer occupancy (ticks)
system.l2bus.respLayer1.utilization               0.8                       # Layer utilization (%)
system.l2cache.tags.pwrStateResidencyTicks::UNDEFINED    416225200                       # Cumulative time (in ticks) in various power states
system.l2cache.tags.replacements                    0                       # number of replacements
system.l2cache.tags.tagsinuse             2103.696904                       # Cycle average of tags in use
system.l2cache.tags.total_refs                   1588                       # Total number of references to valid blocks.
system.l2cache.tags.sampled_refs                 3545                       # Sample count of references to valid blocks.
system.l2cache.tags.avg_refs                 0.447955                       # Average number of references to valid blocks.
system.l2cache.tags.warmup_cycle                    0                       # Cycle when the warmup percentage was hit.
system.l2cache.tags.occ_blocks::cpu.inst   703.119260                       # Average occupied blocks per requestor
system.l2cache.tags.occ_blocks::cpu.data  1400.577645                       # Average occupied blocks per requestor
system.l2cache.tags.occ_percent::cpu.inst     0.010729                       # Average percentage of cache occupancy
system.l2cache.tags.occ_percent::cpu.data     0.021371                       # Average percentage of cache occupancy
system.l2cache.tags.occ_percent::total       0.032100                       # Average percentage of cache occupancy
system.l2cache.tags.occ_task_id_blocks::1024         3545                       # Occupied blocks per task id
system.l2cache.tags.age_task_id_blocks_1024::0          122                       # Occupied blocks per task id
system.l2cache.tags.age_task_id_blocks_1024::1          454                       # Occupied blocks per task id
system.l2cache.tags.age_task_id_blocks_1024::2         2969                       # Occupied blocks per task id
system.l2cache.tags.occ_task_id_percent::1024     0.054092                       # Percentage of cache occupancy per task id
system.l2cache.tags.tag_accesses                44617                       # Number of tag accesses
system.l2cache.tags.data_accesses               44617                       # Number of data accesses
system.l2cache.pwrStateResidencyTicks::UNDEFINED    416225200                       # Cumulative time (in ticks) in various power states
system.l2cache.WritebackDirty_hits::writebacks          470                       # number of WritebackDirty hits
system.l2cache.WritebackDirty_hits::total          470                       # number of WritebackDirty hits
system.l2cache.ReadExReq_hits::cpu.data            35                       # number of ReadExReq hits
system.l2cache.ReadExReq_hits::total               35                       # number of ReadExReq hits
system.l2cache.ReadSharedReq_hits::cpu.inst           95                       # number of ReadSharedReq hits
system.l2cache.ReadSharedReq_hits::cpu.data          164                       # number of ReadSharedReq hits
system.l2cache.ReadSharedReq_hits::total          259                       # number of ReadSharedReq hits
system.l2cache.demand_hits::cpu.inst               95                       # number of demand (read+write) hits
system.l2cache.demand_hits::cpu.data              199                       # number of demand (read+write) hits
system.l2cache.demand_hits::total                 294                       # number of demand (read+write) hits
system.l2cache.overall_hits::cpu.inst              95                       # number of overall hits
system.l2cache.overall_hits::cpu.data             199                       # number of overall hits
system.l2cache.overall_hits::total                294                       # number of overall hits
system.l2cache.ReadExReq_misses::cpu.data          533                       # number of ReadExReq misses
system.l2cache.ReadExReq_misses::total            533                       # number of ReadExReq misses
system.l2cache.ReadSharedReq_misses::cpu.inst         1134                       # number of ReadSharedReq misses
system.l2cache.ReadSharedReq_misses::cpu.data         1879                       # number of ReadSharedReq misses
system.l2cache.ReadSharedReq_misses::total         3013                       # number of ReadSharedReq misses
system.l2cache.demand_misses::cpu.inst           1134                       # number of demand (read+write) misses
system.l2cache.demand_misses::cpu.data           2412                       # number of demand (read+write) misses
system.l2cache.demand_misses::total              3546                       # number of demand (read+write) misses
system.l2cache.overall_misses::cpu.inst          1134                       # number of overall misses
system.l2cache.overall_misses::cpu.data          2412                       # number of overall misses
system.l2cache.overall_misses::total             3546                       # number of overall misses
system.l2cache.ReadExReq_miss_latency::cpu.data     37096800                       # number of ReadExReq miss cycles
system.l2cache.ReadExReq_miss_latency::total     37096800                       # number of ReadExReq miss cycles
system.l2cache.ReadSharedReq_miss_latency::cpu.inst     77593200                       # number of ReadSharedReq miss cycles
system.l2cache.ReadSharedReq_miss_latency::cpu.data    132204800                       # number of ReadSharedReq miss cycles
system.l2cache.ReadSharedReq_miss_latency::total    209798000                       # number of ReadSharedReq miss cycles
system.l2cache.demand_miss_latency::cpu.inst     77593200                       # number of demand (read+write) miss cycles
system.l2cache.demand_miss_latency::cpu.data    169301600                       # number of demand (read+write) miss cycles
system.l2cache.demand_miss_latency::total    246894800                       # number of demand (read+write) miss cycles
system.l2cache.overall_miss_latency::cpu.inst     77593200                       # number of overall miss cycles
system.l2cache.overall_miss_latency::cpu.data    169301600                       # number of overall miss cycles
system.l2cache.overall_miss_latency::total    246894800                       # number of overall miss cycles
system.l2cache.WritebackDirty_accesses::writebacks          470                       # number of WritebackDirty accesses(hits+misses)
system.l2cache.WritebackDirty_accesses::total          470                       # number of WritebackDirty accesses(hits+misses)
system.l2cache.ReadExReq_accesses::cpu.data          568                       # number of ReadExReq accesses(hits+misses)
system.l2cache.ReadExReq_accesses::total          568                       # number of ReadExReq accesses(hits+misses)
system.l2cache.ReadSharedReq_accesses::cpu.inst         1229                       # number of ReadSharedReq accesses(hits+misses)
system.l2cache.ReadSharedReq_accesses::cpu.data         2043                       # number of ReadSharedReq accesses(hits+misses)
system.l2cache.ReadSharedReq_accesses::total         3272                       # number of ReadSharedReq accesses(hits+misses)
system.l2cache.demand_accesses::cpu.inst         1229                       # number of demand (read+write) accesses
system.l2cache.demand_accesses::cpu.data         2611                       # number of demand (read+write) accesses
system.l2cache.demand_accesses::total            3840                       # number of demand (read+write) accesses
system.l2cache.overall_accesses::cpu.inst         1229                       # number of overall (read+write) accesses
system.l2cache.overall_accesses::cpu.data         2611                       # number of overall (read+write) accesses
system.l2cache.overall_accesses::total           3840                       # number of overall (read+write) accesses
system.l2cache.ReadExReq_miss_rate::cpu.data     0.938380                       # miss rate for ReadExReq accesses
system.l2cache.ReadExReq_miss_rate::total     0.938380                       # miss rate for ReadExReq accesses
system.l2cache.ReadSharedReq_miss_rate::cpu.inst     0.922701                       # miss rate for ReadSharedReq accesses
system.l2cache.ReadSharedReq_miss_rate::cpu.data     0.919726                       # miss rate for ReadSharedReq accesses
system.l2cache.ReadSharedReq_miss_rate::total     0.920844                       # miss rate for ReadSharedReq accesses
system.l2cache.demand_miss_rate::cpu.inst     0.922701                       # miss rate for demand accesses
system.l2cache.demand_miss_rate::cpu.data     0.923784                       # miss rate for demand accesses
system.l2cache.demand_miss_rate::total       0.923438                       # miss rate for demand accesses
system.l2cache.overall_miss_rate::cpu.inst     0.922701                       # miss rate for overall accesses
system.l2cache.overall_miss_rate::cpu.data     0.923784                       # miss rate for overall accesses
system.l2cache.overall_miss_rate::total      0.923438                       # miss rate for overall accesses
system.l2cache.ReadExReq_avg_miss_latency::cpu.data        69600                       # average ReadExReq miss latency
system.l2cache.ReadExReq_avg_miss_latency::total        69600                       # average ReadExReq miss latency
system.l2cache.ReadSharedReq_avg_miss_latency::cpu.inst 68424.338624                       # average ReadSharedReq miss latency
system.l2cache.ReadSharedReq_avg_miss_latency::cpu.data 70359.127195                       # average ReadSharedReq miss latency
system.l2cache.ReadSharedReq_avg_miss_latency::total 69630.932625                       # average ReadSharedReq miss latency
system.l2cache.demand_avg_miss_latency::cpu.inst 68424.338624                       # average overall miss latency
system.l2cache.demand_avg_miss_latency::cpu.data 70191.376451                       # average overall miss latency
system.l2cache.demand_avg_miss_latency::total 69626.283136                       # average overall miss latency
system.l2cache.overall_avg_miss_latency::cpu.inst 68424.338624                       # average overall miss latency
system.l2cache.overall_avg_miss_latency::cpu.data 70191.376451                       # average overall miss latency
system.l2cache.overall_avg_miss_latency::total 69626.283136                       # average overall miss latency
system.l2cache.blocked_cycles::no_mshrs             0                       # number of cycles access was blocked
system.l2cache.blocked_cycles::no_targets            0                       # number of cycles access was blocked
system.l2cache.blocked::no_mshrs                    0                       # number of cycles access was blocked
system.l2cache.blocked::no_targets                  0                       # number of cycles access was blocked
system.l2cache.avg_blocked_cycles::no_mshrs          nan                       # average number of cycles each access was blocked
system.l2cache.avg_blocked_cycles::no_targets          nan                       # average number of cycles each access was blocked
system.l2cache.ReadExReq_mshr_misses::cpu.data          533                       # number of ReadExReq MSHR misses
system.l2cache.ReadExReq_mshr_misses::total          533                       # number of ReadExReq MSHR misses
system.l2cache.ReadSharedReq_mshr_misses::cpu.inst         1134                       # number of ReadSharedReq MSHR misses
system.l2cache.ReadSharedReq_mshr_misses::cpu.data         1879                       # number of ReadSharedReq MSHR misses
system.l2cache.ReadSharedReq_mshr_misses::total         3013                       # number of ReadSharedReq MSHR misses
system.l2cache.demand_mshr_misses::cpu.inst         1134                       # number of demand (read+write) MSHR misses
system.l2cache.demand_mshr_misses::cpu.data         2412                       # number of demand (read+write) MSHR misses
system.l2cache.demand_mshr_misses::total         3546                       # number of demand (read+write) MSHR misses
system.l2cache.overall_mshr_misses::cpu.inst         1134                       # number of overall MSHR misses
system.l2cache.overall_mshr_misses::cpu.data         2412                       # number of overall MSHR misses
system.l2cache.overall_mshr_misses::total         3546                       # number of overall MSHR misses
system.l2cache.ReadExReq_mshr_miss_latency::cpu.data     32832800                       # number of ReadExReq MSHR miss cycles
system.l2cache.ReadExReq_mshr_miss_latency::total     32832800                       # number of ReadExReq MSHR miss cycles
system.l2cache.ReadSharedReq_mshr_miss_latency::cpu.inst     68529200                       # number of ReadSharedReq MSHR miss cycles
system.l2cache.ReadSharedReq_mshr_miss_latency::cpu.data    117172800                       # number of ReadSharedReq MSHR miss cycles
system.l2cache.ReadSharedReq_mshr_miss_latency::total    185702000                       # number of ReadSharedReq MSHR miss cycles
system.l2cache.demand_mshr_miss_latency::cpu.inst     68529200                       # number of demand (read+write) MSHR miss cycles
system.l2cache.demand_mshr_miss_latency::cpu.data    150005600                       # number of demand (read+write) MSHR miss cycles
system.l2cache.demand_mshr_miss_latency::total    218534800                       # number of demand (read+write) MSHR miss cycles
system.l2cache.overall_mshr_miss_latency::cpu.inst     68529200                       # number of overall MSHR miss cycles
system.l2cache.overall_mshr_miss_latency::cpu.data    150005600                       # number of overall MSHR miss cycles
system.l2cache.overall_mshr_miss_latency::total    218534800                       # number of overall MSHR miss cycles
system.l2cache.ReadExReq_mshr_miss_rate::cpu.data     0.938380                       # mshr miss rate for ReadExReq accesses
system.l2cache.ReadExReq_mshr_miss_rate::total     0.938380                       # mshr miss rate for ReadExReq accesses
system.l2cache.ReadSharedReq_mshr_miss_rate::cpu.inst     0.922701                       # mshr miss rate for ReadSharedReq accesses
system.l2cache.ReadSharedReq_mshr_miss_rate::cpu.data     0.919726                       # mshr miss rate for ReadSharedReq accesses
system.l2cache.ReadSharedReq_mshr_miss_rate::total     0.920844                       # mshr miss rate for ReadSharedReq accesses
system.l2cache.demand_mshr_miss_rate::cpu.inst     0.922701                       # mshr miss rate for demand accesses
system.l2cache.demand_mshr_miss_rate::cpu.data     0.923784                       # mshr miss rate for demand accesses
system.l2cache.demand_mshr_miss_rate::total     0.923438                       # mshr miss rate for demand accesses
system.l2cache.overall_mshr_miss_rate::cpu.inst     0.922701                       # mshr miss rate for overall accesses
system.l2cache.overall_mshr_miss_rate::cpu.data     0.923784                       # mshr miss rate for overall accesses
system.l2cache.overall_mshr_miss_rate::total     0.923438                       # mshr miss rate for overall accesses
system.l2cache.ReadExReq_avg_mshr_miss_latency::cpu.data        61600                       # average ReadExReq mshr miss latency
system.l2cache.ReadExReq_avg_mshr_miss_latency::total        61600                       # average ReadExReq mshr miss latency
system.l2cache.ReadSharedReq_avg_mshr_miss_latency::cpu.inst 60431.393298                       # average ReadSharedReq mshr miss latency
system.l2cache.ReadSharedReq_avg_mshr_miss_latency::cpu.data 62359.127195                       # average ReadSharedReq mshr miss latency
system.l2cache.ReadSharedReq_avg_mshr_miss_latency::total 61633.587786                       # average ReadSharedReq mshr miss latency
system.l2cache.demand_avg_mshr_miss_latency::cpu.inst 60431.393298                       # average overall mshr miss latency
system.l2cache.demand_avg_mshr_miss_latency::cpu.data 62191.376451                       # average overall mshr miss latency
system.l2cache.demand_avg_mshr_miss_latency::total 61628.539199                       # average overall mshr miss latency
system.l2cache.overall_avg_mshr_miss_latency::cpu.inst 60431.393298                       # average overall mshr miss latency
system.l2cache.overall_avg_mshr_miss_latency::cpu.data 62191.376451                       # average overall mshr miss latency
system.l2cache.overall_avg_mshr_miss_latency::total 61628.539199                       # average overall mshr miss latency
system.membus.snoop_filter.tot_requests          3545                       # Total number of requests made to the snoop filter.
system.membus.snoop_filter.hit_single_requests            0                       # Number of requests hitting in the snoop filter with a single holder of the requested data.
system.membus.snoop_filter.hit_multi_requests            0                       # Number of requests hitting in the snoop filter with multiple (>1) holders of the requested data.
system.membus.snoop_filter.tot_snoops               0                       # Total number of snoops made to the snoop filter.
system.membus.snoop_filter.hit_single_snoops            0                       # Number of snoops hitting in the snoop filter with a single holder of the requested data.
system.membus.snoop_filter.hit_multi_snoops            0                       # Number of snoops hitting in the snoop filter with multiple (>1) holders of the requested data.
system.membus.pwrStateResidencyTicks::UNDEFINED    416225200                       # Cumulative time (in ticks) in various power states
system.membus.trans_dist::ReadResp               3012                       # Transaction distribution
system.membus.trans_dist::ReadExReq               533                       # Transaction distribution
system.membus.trans_dist::ReadExResp              533                       # Transaction distribution
system.membus.trans_dist::ReadSharedReq          3012                       # Transaction distribution
system.membus.pkt_count_system.l2cache.mem_side::system.mem_ctrl.port         7090                       # Packet count per connected master and slave (bytes)
system.membus.pkt_count_system.l2cache.mem_side::total         7090                       # Packet count per connected master and slave (bytes)
system.membus.pkt_count::total                   7090                       # Packet count per connected master and slave (bytes)
system.membus.pkt_size_system.l2cache.mem_side::system.mem_ctrl.port       226880                       # Cumulative packet size per connected master and slave (bytes)
system.membus.pkt_size_system.l2cache.mem_side::total       226880                       # Cumulative packet size per connected master and slave (bytes)
system.membus.pkt_size::total                  226880                       # Cumulative packet size per connected master and slave (bytes)
system.membus.snoops                                0                       # Total snoops (count)
system.membus.snoopTraffic                          0                       # Total snoop traffic (bytes)
system.membus.snoop_fanout::samples              3545                       # Request fanout histogram
system.membus.snoop_fanout::mean                    0                       # Request fanout histogram
system.membus.snoop_fanout::stdev                   0                       # Request fanout histogram
system.membus.snoop_fanout::underflows              0      0.00%      0.00% # Request fanout histogram
system.membus.snoop_fanout::0                    3545    100.00%    100.00% # Request fanout histogram
system.membus.snoop_fanout::1                       0      0.00%    100.00% # Request fanout histogram
system.membus.snoop_fanout::overflows               0      0.00%    100.00% # Request fanout histogram
system.membus.snoop_fanout::min_value               0                       # Request fanout histogram
system.membus.snoop_fanout::max_value               0                       # Request fanout histogram
system.membus.snoop_fanout::total                3545                       # Request fanout histogram
system.membus.reqLayer2.occupancy             1418000                       # Layer occupancy (ticks)
system.membus.reqLayer2.utilization               0.3                       # Layer utilization (%)
system.membus.respLayer0.occupancy            8192032                       # Layer occupancy (ticks)
system.membus.respLayer0.utilization              2.0                       # Layer utilization (%)

---------- End Simulation Statistics   ----------
