
---------- Begin Simulation Statistics ----------
sim_seconds                                  0.091931                       # Number of seconds simulated
sim_ticks                                 91930503200                       # Number of ticks simulated
final_tick                                91930503200                       # Number of ticks from beginning of simulation (restored from checkpoints and never reset)
sim_freq                                 1000000000000                       # Frequency of simulated ticks
host_inst_rate                                1123202                       # Simulator instruction rate (inst/s)
host_op_rate                                  1931962                       # Simulator op (including micro ops) rate (op/s)
host_tick_rate                             2164695901                       # Simulator tick rate (ticks/s)
host_mem_usage                                 684812                       # Number of bytes of host memory used
host_seconds                                    42.47                       # Real time elapsed on the host
sim_insts                                    47700244                       # Number of instructions simulated
sim_ops                                      82046706                       # Number of ops (including micro ops) simulated
system.clk_domain.voltage_domain.voltage            1                       # Voltage in Volts
system.clk_domain.clock                           400                       # Clock period in ticks
system.mem_ctrl.pwrStateResidencyTicks::UNDEFINED  91930503200                       # Cumulative time (in ticks) in various power states
system.mem_ctrl.bytes_read::cpu.inst            54464                       # Number of bytes read from this memory
system.mem_ctrl.bytes_read::cpu.data          4159296                       # Number of bytes read from this memory
system.mem_ctrl.bytes_read::total             4213760                       # Number of bytes read from this memory
system.mem_ctrl.bytes_inst_read::cpu.inst        54464                       # Number of instructions bytes read from this memory
system.mem_ctrl.bytes_inst_read::total          54464                       # Number of instructions bytes read from this memory
system.mem_ctrl.bytes_written::writebacks        28928                       # Number of bytes written to this memory
system.mem_ctrl.bytes_written::total            28928                       # Number of bytes written to this memory
system.mem_ctrl.num_reads::cpu.inst               851                       # Number of read requests responded to by this memory
system.mem_ctrl.num_reads::cpu.data             64989                       # Number of read requests responded to by this memory
system.mem_ctrl.num_reads::total                65840                       # Number of read requests responded to by this memory
system.mem_ctrl.num_writes::writebacks            452                       # Number of write requests responded to by this memory
system.mem_ctrl.num_writes::total                 452                       # Number of write requests responded to by this memory
system.mem_ctrl.bw_read::cpu.inst              592448                       # Total read bandwidth from this memory (bytes/s)
system.mem_ctrl.bw_read::cpu.data            45243916                       # Total read bandwidth from this memory (bytes/s)
system.mem_ctrl.bw_read::total               45836364                       # Total read bandwidth from this memory (bytes/s)
system.mem_ctrl.bw_inst_read::cpu.inst         592448                       # Instruction read bandwidth from this memory (bytes/s)
system.mem_ctrl.bw_inst_read::total            592448                       # Instruction read bandwidth from this memory (bytes/s)
system.mem_ctrl.bw_write::writebacks           314672                       # Write bandwidth from this memory (bytes/s)
system.mem_ctrl.bw_write::total                314672                       # Write bandwidth from this memory (bytes/s)
system.mem_ctrl.bw_total::writebacks           314672                       # Total bandwidth to/from this memory (bytes/s)
system.mem_ctrl.bw_total::cpu.inst             592448                       # Total bandwidth to/from this memory (bytes/s)
system.mem_ctrl.bw_total::cpu.data           45243916                       # Total bandwidth to/from this memory (bytes/s)
system.mem_ctrl.bw_total::total              46151036                       # Total bandwidth to/from this memory (bytes/s)
system.mem_ctrl.readReqs                        65840                       # Number of read requests accepted
system.mem_ctrl.writeReqs                         452                       # Number of write requests accepted
system.mem_ctrl.readBursts                      65840                       # Number of DRAM read bursts, including those serviced by the write queue
system.mem_ctrl.writeBursts                       452                       # Number of DRAM write bursts, including those merged in the write queue
system.mem_ctrl.bytesReadDRAM                 4209664                       # Total number of bytes read from DRAM
system.mem_ctrl.bytesReadWrQ                     4096                       # Total number of bytes read from write queue
system.mem_ctrl.bytesWritten                    23552                       # Total number of bytes written to DRAM
system.mem_ctrl.bytesReadSys                  4213760                       # Total read bytes from the system interface side
system.mem_ctrl.bytesWrittenSys                 28928                       # Total written bytes from the system interface side
system.mem_ctrl.servicedByWrQ                      64                       # Number of DRAM read bursts serviced by the write queue
system.mem_ctrl.mergedWrBursts                     54                       # Number of DRAM write bursts merged with an existing one
system.mem_ctrl.neitherReadNorWriteReqs             0                       # Number of requests that are neither read nor write
system.mem_ctrl.perBankRdBursts::0               4195                       # Per bank write bursts
system.mem_ctrl.perBankRdBursts::1               4190                       # Per bank write bursts
system.mem_ctrl.perBankRdBursts::2               4166                       # Per bank write bursts
system.mem_ctrl.perBankRdBursts::3               4108                       # Per bank write bursts
system.mem_ctrl.perBankRdBursts::4               4217                       # Per bank write bursts
system.mem_ctrl.perBankRdBursts::5               4245                       # Per bank write bursts
system.mem_ctrl.perBankRdBursts::6               4238                       # Per bank write bursts
system.mem_ctrl.perBankRdBursts::7               4116                       # Per bank write bursts
system.mem_ctrl.perBankRdBursts::8               4046                       # Per bank write bursts
system.mem_ctrl.perBankRdBursts::9               4129                       # Per bank write bursts
system.mem_ctrl.perBankRdBursts::10              4164                       # Per bank write bursts
system.mem_ctrl.perBankRdBursts::11              4079                       # Per bank write bursts
system.mem_ctrl.perBankRdBursts::12              3878                       # Per bank write bursts
system.mem_ctrl.perBankRdBursts::13              3905                       # Per bank write bursts
system.mem_ctrl.perBankRdBursts::14              3963                       # Per bank write bursts
system.mem_ctrl.perBankRdBursts::15              4137                       # Per bank write bursts
system.mem_ctrl.perBankWrBursts::0                 16                       # Per bank write bursts
system.mem_ctrl.perBankWrBursts::1                 17                       # Per bank write bursts
system.mem_ctrl.perBankWrBursts::2                  0                       # Per bank write bursts
system.mem_ctrl.perBankWrBursts::3                  3                       # Per bank write bursts
system.mem_ctrl.perBankWrBursts::4                 31                       # Per bank write bursts
system.mem_ctrl.perBankWrBursts::5                 84                       # Per bank write bursts
system.mem_ctrl.perBankWrBursts::6                 81                       # Per bank write bursts
system.mem_ctrl.perBankWrBursts::7                 53                       # Per bank write bursts
system.mem_ctrl.perBankWrBursts::8                  1                       # Per bank write bursts
system.mem_ctrl.perBankWrBursts::9                 20                       # Per bank write bursts
system.mem_ctrl.perBankWrBursts::10                40                       # Per bank write bursts
system.mem_ctrl.perBankWrBursts::11                 4                       # Per bank write bursts
system.mem_ctrl.perBankWrBursts::12                 2                       # Per bank write bursts
system.mem_ctrl.perBankWrBursts::13                 0                       # Per bank write bursts
system.mem_ctrl.perBankWrBursts::14                12                       # Per bank write bursts
system.mem_ctrl.perBankWrBursts::15                 4                       # Per bank write bursts
system.mem_ctrl.numRdRetry                          0                       # Number of times read queue was full causing retry
system.mem_ctrl.numWrRetry                          0                       # Number of times write queue was full causing retry
system.mem_ctrl.totGap                    91930491200                       # Total gap between requests
system.mem_ctrl.readPktSize::0                      0                       # Read request sizes (log2)
system.mem_ctrl.readPktSize::1                      0                       # Read request sizes (log2)
system.mem_ctrl.readPktSize::2                      0                       # Read request sizes (log2)
system.mem_ctrl.readPktSize::3                      0                       # Read request sizes (log2)
system.mem_ctrl.readPktSize::4                      0                       # Read request sizes (log2)
system.mem_ctrl.readPktSize::5                      0                       # Read request sizes (log2)
system.mem_ctrl.readPktSize::6                  65840                       # Read request sizes (log2)
system.mem_ctrl.writePktSize::0                     0                       # Write request sizes (log2)
system.mem_ctrl.writePktSize::1                     0                       # Write request sizes (log2)
system.mem_ctrl.writePktSize::2                     0                       # Write request sizes (log2)
system.mem_ctrl.writePktSize::3                     0                       # Write request sizes (log2)
system.mem_ctrl.writePktSize::4                     0                       # Write request sizes (log2)
system.mem_ctrl.writePktSize::5                     0                       # Write request sizes (log2)
system.mem_ctrl.writePktSize::6                   452                       # Write request sizes (log2)
system.mem_ctrl.rdQLenPdf::0                    65776                       # What read queue length does an incoming req see
system.mem_ctrl.rdQLenPdf::1                        0                       # What read queue length does an incoming req see
system.mem_ctrl.rdQLenPdf::2                        0                       # What read queue length does an incoming req see
system.mem_ctrl.rdQLenPdf::3                        0                       # What read queue length does an incoming req see
system.mem_ctrl.rdQLenPdf::4                        0                       # What read queue length does an incoming req see
system.mem_ctrl.rdQLenPdf::5                        0                       # What read queue length does an incoming req see
system.mem_ctrl.rdQLenPdf::6                        0                       # What read queue length does an incoming req see
system.mem_ctrl.rdQLenPdf::7                        0                       # What read queue length does an incoming req see
system.mem_ctrl.rdQLenPdf::8                        0                       # What read queue length does an incoming req see
system.mem_ctrl.rdQLenPdf::9                        0                       # What read queue length does an incoming req see
system.mem_ctrl.rdQLenPdf::10                       0                       # What read queue length does an incoming req see
system.mem_ctrl.rdQLenPdf::11                       0                       # What read queue length does an incoming req see
system.mem_ctrl.rdQLenPdf::12                       0                       # What read queue length does an incoming req see
system.mem_ctrl.rdQLenPdf::13                       0                       # What read queue length does an incoming req see
system.mem_ctrl.rdQLenPdf::14                       0                       # What read queue length does an incoming req see
system.mem_ctrl.rdQLenPdf::15                       0                       # What read queue length does an incoming req see
system.mem_ctrl.rdQLenPdf::16                       0                       # What read queue length does an incoming req see
system.mem_ctrl.rdQLenPdf::17                       0                       # What read queue length does an incoming req see
system.mem_ctrl.rdQLenPdf::18                       0                       # What read queue length does an incoming req see
system.mem_ctrl.rdQLenPdf::19                       0                       # What read queue length does an incoming req see
system.mem_ctrl.rdQLenPdf::20                       0                       # What read queue length does an incoming req see
system.mem_ctrl.rdQLenPdf::21                       0                       # What read queue length does an incoming req see
system.mem_ctrl.rdQLenPdf::22                       0                       # What read queue length does an incoming req see
system.mem_ctrl.rdQLenPdf::23                       0                       # What read queue length does an incoming req see
system.mem_ctrl.rdQLenPdf::24                       0                       # What read queue length does an incoming req see
system.mem_ctrl.rdQLenPdf::25                       0                       # What read queue length does an incoming req see
system.mem_ctrl.rdQLenPdf::26                       0                       # What read queue length does an incoming req see
system.mem_ctrl.rdQLenPdf::27                       0                       # What read queue length does an incoming req see
system.mem_ctrl.rdQLenPdf::28                       0                       # What read queue length does an incoming req see
system.mem_ctrl.rdQLenPdf::29                       0                       # What read queue length does an incoming req see
system.mem_ctrl.rdQLenPdf::30                       0                       # What read queue length does an incoming req see
system.mem_ctrl.rdQLenPdf::31                       0                       # What read queue length does an incoming req see
system.mem_ctrl.wrQLenPdf::0                        1                       # What write queue length does an incoming req see
system.mem_ctrl.wrQLenPdf::1                        1                       # What write queue length does an incoming req see
system.mem_ctrl.wrQLenPdf::2                        1                       # What write queue length does an incoming req see
system.mem_ctrl.wrQLenPdf::3                        1                       # What write queue length does an incoming req see
system.mem_ctrl.wrQLenPdf::4                        1                       # What write queue length does an incoming req see
system.mem_ctrl.wrQLenPdf::5                        1                       # What write queue length does an incoming req see
system.mem_ctrl.wrQLenPdf::6                        1                       # What write queue length does an incoming req see
system.mem_ctrl.wrQLenPdf::7                        1                       # What write queue length does an incoming req see
system.mem_ctrl.wrQLenPdf::8                        1                       # What write queue length does an incoming req see
system.mem_ctrl.wrQLenPdf::9                        1                       # What write queue length does an incoming req see
system.mem_ctrl.wrQLenPdf::10                       1                       # What write queue length does an incoming req see
system.mem_ctrl.wrQLenPdf::11                       1                       # What write queue length does an incoming req see
system.mem_ctrl.wrQLenPdf::12                       1                       # What write queue length does an incoming req see
system.mem_ctrl.wrQLenPdf::13                       1                       # What write queue length does an incoming req see
system.mem_ctrl.wrQLenPdf::14                       1                       # What write queue length does an incoming req see
system.mem_ctrl.wrQLenPdf::15                       9                       # What write queue length does an incoming req see
system.mem_ctrl.wrQLenPdf::16                       9                       # What write queue length does an incoming req see
system.mem_ctrl.wrQLenPdf::17                      23                       # What write queue length does an incoming req see
system.mem_ctrl.wrQLenPdf::18                      23                       # What write queue length does an incoming req see
system.mem_ctrl.wrQLenPdf::19                      23                       # What write queue length does an incoming req see
system.mem_ctrl.wrQLenPdf::20                      23                       # What write queue length does an incoming req see
system.mem_ctrl.wrQLenPdf::21                      23                       # What write queue length does an incoming req see
system.mem_ctrl.wrQLenPdf::22                      23                       # What write queue length does an incoming req see
system.mem_ctrl.wrQLenPdf::23                      23                       # What write queue length does an incoming req see
system.mem_ctrl.wrQLenPdf::24                      23                       # What write queue length does an incoming req see
system.mem_ctrl.wrQLenPdf::25                      23                       # What write queue length does an incoming req see
system.mem_ctrl.wrQLenPdf::26                      23                       # What write queue length does an incoming req see
system.mem_ctrl.wrQLenPdf::27                      23                       # What write queue length does an incoming req see
system.mem_ctrl.wrQLenPdf::28                      23                       # What write queue length does an incoming req see
system.mem_ctrl.wrQLenPdf::29                      23                       # What write queue length does an incoming req see
system.mem_ctrl.wrQLenPdf::30                      22                       # What write queue length does an incoming req see
system.mem_ctrl.wrQLenPdf::31                      22                       # What write queue length does an incoming req see
system.mem_ctrl.wrQLenPdf::32                      22                       # What write queue length does an incoming req see
system.mem_ctrl.wrQLenPdf::33                       0                       # What write queue length does an incoming req see
system.mem_ctrl.wrQLenPdf::34                       0                       # What write queue length does an incoming req see
system.mem_ctrl.wrQLenPdf::35                       0                       # What write queue length does an incoming req see
system.mem_ctrl.wrQLenPdf::36                       0                       # What write queue length does an incoming req see
system.mem_ctrl.wrQLenPdf::37                       0                       # What write queue length does an incoming req see
system.mem_ctrl.wrQLenPdf::38                       0                       # What write queue length does an incoming req see
system.mem_ctrl.wrQLenPdf::39                       0                       # What write queue length does an incoming req see
system.mem_ctrl.wrQLenPdf::40                       0                       # What write queue length does an incoming req see
system.mem_ctrl.wrQLenPdf::41                       0                       # What write queue length does an incoming req see
system.mem_ctrl.wrQLenPdf::42                       0                       # What write queue length does an incoming req see
system.mem_ctrl.wrQLenPdf::43                       0                       # What write queue length does an incoming req see
system.mem_ctrl.wrQLenPdf::44                       0                       # What write queue length does an incoming req see
system.mem_ctrl.wrQLenPdf::45                       0                       # What write queue length does an incoming req see
system.mem_ctrl.wrQLenPdf::46                       0                       # What write queue length does an incoming req see
system.mem_ctrl.wrQLenPdf::47                       0                       # What write queue length does an incoming req see
system.mem_ctrl.wrQLenPdf::48                       0                       # What write queue length does an incoming req see
system.mem_ctrl.wrQLenPdf::49                       0                       # What write queue length does an incoming req see
system.mem_ctrl.wrQLenPdf::50                       0                       # What write queue length does an incoming req see
system.mem_ctrl.wrQLenPdf::51                       0                       # What write queue length does an incoming req see
system.mem_ctrl.wrQLenPdf::52                       0                       # What write queue length does an incoming req see
system.mem_ctrl.wrQLenPdf::53                       0                       # What write queue length does an incoming req see
system.mem_ctrl.wrQLenPdf::54                       0                       # What write queue length does an incoming req see
system.mem_ctrl.wrQLenPdf::55                       0                       # What write queue length does an incoming req see
system.mem_ctrl.wrQLenPdf::56                       0                       # What write queue length does an incoming req see
system.mem_ctrl.wrQLenPdf::57                       0                       # What write queue length does an incoming req see
system.mem_ctrl.wrQLenPdf::58                       0                       # What write queue length does an incoming req see
system.mem_ctrl.wrQLenPdf::59                       0                       # What write queue length does an incoming req see
system.mem_ctrl.wrQLenPdf::60                       0                       # What write queue length does an incoming req see
system.mem_ctrl.wrQLenPdf::61                       0                       # What write queue length does an incoming req see
system.mem_ctrl.wrQLenPdf::62                       0                       # What write queue length does an incoming req see
system.mem_ctrl.wrQLenPdf::63                       0                       # What write queue length does an incoming req see
system.mem_ctrl.bytesPerActivate::samples         6355                       # Bytes accessed per row activation
system.mem_ctrl.bytesPerActivate::mean     665.861841                       # Bytes accessed per row activation
system.mem_ctrl.bytesPerActivate::gmean    550.819670                       # Bytes accessed per row activation
system.mem_ctrl.bytesPerActivate::stdev    331.311121                       # Bytes accessed per row activation
system.mem_ctrl.bytesPerActivate::0-127           331      5.21%      5.21% # Bytes accessed per row activation
system.mem_ctrl.bytesPerActivate::128-255          294      4.63%      9.83% # Bytes accessed per row activation
system.mem_ctrl.bytesPerActivate::256-383          198      3.12%     12.95% # Bytes accessed per row activation
system.mem_ctrl.bytesPerActivate::384-511         2490     39.18%     52.13% # Bytes accessed per row activation
system.mem_ctrl.bytesPerActivate::512-639           92      1.45%     53.58% # Bytes accessed per row activation
system.mem_ctrl.bytesPerActivate::640-767           77      1.21%     54.79% # Bytes accessed per row activation
system.mem_ctrl.bytesPerActivate::768-895          141      2.22%     57.01% # Bytes accessed per row activation
system.mem_ctrl.bytesPerActivate::896-1023           84      1.32%     58.33% # Bytes accessed per row activation
system.mem_ctrl.bytesPerActivate::1024-1151         2648     41.67%    100.00% # Bytes accessed per row activation
system.mem_ctrl.bytesPerActivate::total          6355                       # Bytes accessed per row activation
system.mem_ctrl.rdPerTurnAround::samples           22                       # Reads before turning the bus around for writes
system.mem_ctrl.rdPerTurnAround::mean     2989.227273                       # Reads before turning the bus around for writes
system.mem_ctrl.rdPerTurnAround::gmean      40.860268                       # Reads before turning the bus around for writes
system.mem_ctrl.rdPerTurnAround::stdev   13022.334620                       # Reads before turning the bus around for writes
system.mem_ctrl.rdPerTurnAround::0-2047            20     90.91%     90.91% # Reads before turning the bus around for writes
system.mem_ctrl.rdPerTurnAround::2048-4095            1      4.55%     95.45% # Reads before turning the bus around for writes
system.mem_ctrl.rdPerTurnAround::59392-61439            1      4.55%    100.00% # Reads before turning the bus around for writes
system.mem_ctrl.rdPerTurnAround::total             22                       # Reads before turning the bus around for writes
system.mem_ctrl.wrPerTurnAround::samples           22                       # Writes before turning the bus around for reads
system.mem_ctrl.wrPerTurnAround::mean       16.727273                       # Writes before turning the bus around for reads
system.mem_ctrl.wrPerTurnAround::gmean      16.700170                       # Writes before turning the bus around for reads
system.mem_ctrl.wrPerTurnAround::stdev       0.984732                       # Writes before turning the bus around for reads
system.mem_ctrl.wrPerTurnAround::16                14     63.64%     63.64% # Writes before turning the bus around for reads
system.mem_ctrl.wrPerTurnAround::18                 8     36.36%    100.00% # Writes before turning the bus around for reads
system.mem_ctrl.wrPerTurnAround::total             22                       # Writes before turning the bus around for reads
system.mem_ctrl.totQLat                     660383150                       # Total ticks spent queuing
system.mem_ctrl.totMemAccLat               1893683150                       # Total ticks spent from burst creation until serviced by the DRAM
system.mem_ctrl.totBusLat                   328880000                       # Total ticks spent in databus transfers
system.mem_ctrl.avgQLat                      10039.88                       # Average queueing delay per DRAM burst
system.mem_ctrl.avgBusLat                     5000.00                       # Average bus latency per DRAM burst
system.mem_ctrl.avgMemAccLat                 28789.88                       # Average memory access latency per DRAM burst
system.mem_ctrl.avgRdBW                         45.79                       # Average DRAM read bandwidth in MiByte/s
system.mem_ctrl.avgWrBW                          0.26                       # Average achieved write bandwidth in MiByte/s
system.mem_ctrl.avgRdBWSys                      45.84                       # Average system read bandwidth in MiByte/s
system.mem_ctrl.avgWrBWSys                       0.31                       # Average system write bandwidth in MiByte/s
system.mem_ctrl.peakBW                       12800.00                       # Theoretical peak bandwidth in MiByte/s
system.mem_ctrl.busUtil                          0.36                       # Data bus utilization in percentage
system.mem_ctrl.busUtilRead                      0.36                       # Data bus utilization in percentage for reads
system.mem_ctrl.busUtilWrite                     0.00                       # Data bus utilization in percentage for writes
system.mem_ctrl.avgRdQLen                        1.00                       # Average read queue length when enqueuing
system.mem_ctrl.avgWrQLen                       14.78                       # Average write queue length when enqueuing
system.mem_ctrl.readRowHits                     59491                       # Number of row buffer hits during reads
system.mem_ctrl.writeRowHits                      290                       # Number of row buffer hits during writes
system.mem_ctrl.readRowHitRate                  90.44                       # Row buffer hit rate for reads
system.mem_ctrl.writeRowHitRate                 72.86                       # Row buffer hit rate for writes
system.mem_ctrl.avgGap                     1386750.91                       # Average gap between requests
system.mem_ctrl.pageHitRate                     90.34                       # Row buffer hit rate, read and write combined
system.mem_ctrl_0.actEnergy                  23519160                       # Energy for activate commands per rank (pJ)
system.mem_ctrl_0.preEnergy                  12481755                       # Energy for precharge commands per rank (pJ)
system.mem_ctrl_0.readEnergy                239011500                       # Energy for read commands per rank (pJ)
system.mem_ctrl_0.writeEnergy                 1487700                       # Energy for write commands per rank (pJ)
system.mem_ctrl_0.refreshEnergy          931179600.000000                       # Energy for refresh commands per rank (pJ)
system.mem_ctrl_0.actBackEnergy             572556450                       # Energy for active background per rank (pJ)
system.mem_ctrl_0.preBackEnergy              31698240                       # Energy for precharge background per rank (pJ)
system.mem_ctrl_0.actPowerDownEnergy       4364252880                       # Energy for active power-down per rank (pJ)
system.mem_ctrl_0.prePowerDownEnergy        247969440                       # Energy for precharge power-down per rank (pJ)
system.mem_ctrl_0.selfRefreshEnergy       19308984060                       # Energy for self refresh per rank (pJ)
system.mem_ctrl_0.totalEnergy             25733140785                       # Total energy per rank (pJ)
system.mem_ctrl_0.averagePower             279.919502                       # Core power per rank (mW)
system.mem_ctrl_0.totalIdleTime           90592071750                       # Total Idle time Per DRAM Rank
system.mem_ctrl_0.memoryStateTime::IDLE      24759200                       # Time in different power states
system.mem_ctrl_0.memoryStateTime::REF      394104000                       # Time in different power states
system.mem_ctrl_0.memoryStateTime::SREF   80375866500                       # Time in different power states
system.mem_ctrl_0.memoryStateTime::PRE_PDN    645752600                       # Time in different power states
system.mem_ctrl_0.memoryStateTime::ACT      919261400                       # Time in different power states
system.mem_ctrl_0.memoryStateTime::ACT_PDN   9570759500                       # Time in different power states
system.mem_ctrl_1.actEnergy                  21912660                       # Energy for activate commands per rank (pJ)
system.mem_ctrl_1.preEnergy                  11635470                       # Energy for precharge commands per rank (pJ)
system.mem_ctrl_1.readEnergy                230629140                       # Energy for read commands per rank (pJ)
system.mem_ctrl_1.writeEnergy                  433260                       # Energy for write commands per rank (pJ)
system.mem_ctrl_1.refreshEnergy          904135440.000000                       # Energy for refresh commands per rank (pJ)
system.mem_ctrl_1.actBackEnergy             549352890                       # Energy for active background per rank (pJ)
system.mem_ctrl_1.preBackEnergy              33159360                       # Energy for precharge background per rank (pJ)
system.mem_ctrl_1.actPowerDownEnergy       4233705780                       # Energy for active power-down per rank (pJ)
system.mem_ctrl_1.prePowerDownEnergy        245605440                       # Energy for precharge power-down per rank (pJ)
system.mem_ctrl_1.selfRefreshEnergy       19389917520                       # Energy for self refresh per rank (pJ)
system.mem_ctrl_1.totalEnergy             25620486960                       # Total energy per rank (pJ)
system.mem_ctrl_1.averagePower             278.694078                       # Core power per rank (mW)
system.mem_ctrl_1.totalIdleTime           90639444250                       # Total Idle time Per DRAM Rank
system.mem_ctrl_1.memoryStateTime::IDLE      29642400                       # Time in different power states
system.mem_ctrl_1.memoryStateTime::REF      382658000                       # Time in different power states
system.mem_ctrl_1.memoryStateTime::SREF   80715390050                       # Time in different power states
system.mem_ctrl_1.memoryStateTime::PRE_PDN    639618150                       # Time in different power states
system.mem_ctrl_1.memoryStateTime::ACT      878723700                       # Time in different power states
system.mem_ctrl_1.memoryStateTime::ACT_PDN   9284470900                       # Time in different power states
system.pwrStateResidencyTicks::UNDEFINED  91930503200                       # Cumulative time (in ticks) in various power states
system.cpu.dtb.walker.pwrStateResidencyTicks::UNDEFINED  91930503200                       # Cumulative time (in ticks) in various power states
system.cpu.dtb.rdAccesses                    23854000                       # TLB accesses on read requests
system.cpu.dtb.wrAccesses                     7334621                       # TLB accesses on write requests
system.cpu.dtb.rdMisses                          1229                       # TLB misses on read requests
system.cpu.dtb.wrMisses                        116843                       # TLB misses on write requests
system.cpu.apic_clk_domain.clock                 6400                       # Clock period in ticks
system.cpu.interrupts.pwrStateResidencyTicks::UNDEFINED  91930503200                       # Cumulative time (in ticks) in various power states
system.cpu.itb.walker.pwrStateResidencyTicks::UNDEFINED  91930503200                       # Cumulative time (in ticks) in various power states
system.cpu.itb.rdAccesses                           0                       # TLB accesses on read requests
system.cpu.itb.wrAccesses                    63318174                       # TLB accesses on write requests
system.cpu.itb.rdMisses                             0                       # TLB misses on read requests
system.cpu.itb.wrMisses                            89                       # TLB misses on write requests
system.cpu.workload.numSyscalls                    33                       # Number of system calls
system.cpu.pwrStateResidencyTicks::ON     91930503200                       # Cumulative time (in ticks) in various power states
system.cpu.numCycles                        229826258                       # number of cpu cycles simulated
system.cpu.numWorkItemsStarted                      0                       # number of work items this cpu started
system.cpu.numWorkItemsCompleted                    0                       # number of work items this cpu completed
system.cpu.committedInsts                    47700244                       # Number of instructions committed
system.cpu.committedOps                      82046706                       # Number of ops (including micro ops) committed
system.cpu.num_int_alu_accesses              82043407                       # Number of integer alu accesses
system.cpu.num_fp_alu_accesses                   3447                       # Number of float alu accesses
system.cpu.num_vec_alu_accesses                     0                       # Number of vector alu accesses
system.cpu.num_func_calls                        1358                       # number of times a function call or return occured
system.cpu.num_conditional_control_insts      5151277                       # number of instructions that are conditional controls
system.cpu.num_int_insts                     82043407                       # number of integer instructions
system.cpu.num_fp_insts                          3447                       # number of float instructions
system.cpu.num_vec_insts                            0                       # number of vector instructions
system.cpu.num_int_register_reads           173517092                       # number of times the integer registers were read
system.cpu.num_int_register_writes           69557594                       # number of times the integer registers were written
system.cpu.num_fp_register_reads                 5525                       # number of times the floating registers were read
system.cpu.num_fp_register_writes                2660                       # number of times the floating registers were written
system.cpu.num_vec_register_reads                   0                       # number of times the vector registers were read
system.cpu.num_vec_register_writes                  0                       # number of times the vector registers were written
system.cpu.num_cc_register_reads             26790677                       # number of times the CC registers were read
system.cpu.num_cc_register_writes            31250784                       # number of times the CC registers were written
system.cpu.num_mem_refs                      31188612                       # number of memory refs
system.cpu.num_load_insts                    23853991                       # Number of load instructions
system.cpu.num_store_insts                    7334621                       # Number of store instructions
system.cpu.num_idle_cycles                          0                       # Number of idle cycles
system.cpu.num_busy_cycles                  229826258                       # Number of busy cycles
system.cpu.not_idle_fraction                        1                       # Percentage of non-idle cycles
system.cpu.idle_fraction                            0                       # Percentage of idle cycles
system.cpu.Branches                           5154587                       # Number of branches fetched
system.cpu.op_class::No_OpClass                  1287      0.00%      0.00% # Class of executed instruction
system.cpu.op_class::IntAlu                  50852257     61.98%     61.98% # Class of executed instruction
system.cpu.op_class::IntMult                     1192      0.00%     61.98% # Class of executed instruction
system.cpu.op_class::IntDiv                      1131      0.00%     61.98% # Class of executed instruction
system.cpu.op_class::FloatAdd                    2227      0.00%     61.99% # Class of executed instruction
system.cpu.op_class::FloatCmp                       0      0.00%     61.99% # Class of executed instruction
system.cpu.op_class::FloatCvt                       0      0.00%     61.99% # Class of executed instruction
system.cpu.op_class::FloatMult                      0      0.00%     61.99% # Class of executed instruction
system.cpu.op_class::FloatMultAcc                   0      0.00%     61.99% # Class of executed instruction
system.cpu.op_class::FloatDiv                       0      0.00%     61.99% # Class of executed instruction
system.cpu.op_class::FloatMisc                      0      0.00%     61.99% # Class of executed instruction
system.cpu.op_class::FloatSqrt                      0      0.00%     61.99% # Class of executed instruction
system.cpu.op_class::SimdAdd                        0      0.00%     61.99% # Class of executed instruction
system.cpu.op_class::SimdAddAcc                     0      0.00%     61.99% # Class of executed instruction
system.cpu.op_class::SimdAlu                        0      0.00%     61.99% # Class of executed instruction
system.cpu.op_class::SimdCmp                        0      0.00%     61.99% # Class of executed instruction
system.cpu.op_class::SimdCvt                        0      0.00%     61.99% # Class of executed instruction
system.cpu.op_class::SimdMisc                       0      0.00%     61.99% # Class of executed instruction
system.cpu.op_class::SimdMult                       0      0.00%     61.99% # Class of executed instruction
system.cpu.op_class::SimdMultAcc                    0      0.00%     61.99% # Class of executed instruction
system.cpu.op_class::SimdShift                      0      0.00%     61.99% # Class of executed instruction
system.cpu.op_class::SimdShiftAcc                   0      0.00%     61.99% # Class of executed instruction
system.cpu.op_class::SimdSqrt                       0      0.00%     61.99% # Class of executed instruction
system.cpu.op_class::SimdFloatAdd                   0      0.00%     61.99% # Class of executed instruction
system.cpu.op_class::SimdFloatAlu                   0      0.00%     61.99% # Class of executed instruction
system.cpu.op_class::SimdFloatCmp                   0      0.00%     61.99% # Class of executed instruction
system.cpu.op_class::SimdFloatCvt                   0      0.00%     61.99% # Class of executed instruction
system.cpu.op_class::SimdFloatDiv                   0      0.00%     61.99% # Class of executed instruction
system.cpu.op_class::SimdFloatMisc                  0      0.00%     61.99% # Class of executed instruction
system.cpu.op_class::SimdFloatMult                  0      0.00%     61.99% # Class of executed instruction
system.cpu.op_class::SimdFloatMultAcc               0      0.00%     61.99% # Class of executed instruction
system.cpu.op_class::SimdFloatSqrt                  0      0.00%     61.99% # Class of executed instruction
system.cpu.op_class::MemRead                 23853209     29.07%     91.06% # Class of executed instruction
system.cpu.op_class::MemWrite                 7334237      8.94%    100.00% # Class of executed instruction
system.cpu.op_class::FloatMemRead                 782      0.00%    100.00% # Class of executed instruction
system.cpu.op_class::FloatMemWrite                384      0.00%    100.00% # Class of executed instruction
system.cpu.op_class::IprAccess                      0      0.00%    100.00% # Class of executed instruction
system.cpu.op_class::InstPrefetch                   0      0.00%    100.00% # Class of executed instruction
system.cpu.op_class::total                   82046706                       # Class of executed instruction
system.cpu.dcache.tags.pwrStateResidencyTicks::UNDEFINED  91930503200                       # Cumulative time (in ticks) in various power states
system.cpu.dcache.tags.replacements           1280468                       # number of replacements
system.cpu.dcache.tags.tagsinuse          2041.698185                       # Cycle average of tags in use
system.cpu.dcache.tags.total_refs            29906105                       # Total number of references to valid blocks.
system.cpu.dcache.tags.sampled_refs           1282516                       # Sample count of references to valid blocks.
system.cpu.dcache.tags.avg_refs             23.318309                       # Average number of references to valid blocks.
system.cpu.dcache.tags.warmup_cycle        1094002400                       # Cycle when the warmup percentage was hit.
system.cpu.dcache.tags.occ_blocks::cpu.data  2041.698185                       # Average occupied blocks per requestor
system.cpu.dcache.tags.occ_percent::cpu.data     0.996923                       # Average percentage of cache occupancy
system.cpu.dcache.tags.occ_percent::total     0.996923                       # Average percentage of cache occupancy
system.cpu.dcache.tags.occ_task_id_blocks::1024         2048                       # Occupied blocks per task id
system.cpu.dcache.tags.age_task_id_blocks_1024::0           33                       # Occupied blocks per task id
system.cpu.dcache.tags.age_task_id_blocks_1024::1          299                       # Occupied blocks per task id
system.cpu.dcache.tags.age_task_id_blocks_1024::2         1716                       # Occupied blocks per task id
system.cpu.dcache.tags.occ_task_id_percent::1024            1                       # Percentage of cache occupancy per task id
system.cpu.dcache.tags.tag_accesses          32471137                       # Number of tag accesses
system.cpu.dcache.tags.data_accesses         32471137                       # Number of data accesses
system.cpu.dcache.pwrStateResidencyTicks::UNDEFINED  91930503200                       # Cumulative time (in ticks) in various power states
system.cpu.dcache.ReadReq_hits::cpu.data     23784255                       # number of ReadReq hits
system.cpu.dcache.ReadReq_hits::total        23784255                       # number of ReadReq hits
system.cpu.dcache.WriteReq_hits::cpu.data      6121850                       # number of WriteReq hits
system.cpu.dcache.WriteReq_hits::total        6121850                       # number of WriteReq hits
system.cpu.dcache.demand_hits::cpu.data      29906105                       # number of demand (read+write) hits
system.cpu.dcache.demand_hits::total         29906105                       # number of demand (read+write) hits
system.cpu.dcache.overall_hits::cpu.data     29906105                       # number of overall hits
system.cpu.dcache.overall_hits::total        29906105                       # number of overall hits
system.cpu.dcache.ReadReq_misses::cpu.data        69745                       # number of ReadReq misses
system.cpu.dcache.ReadReq_misses::total         69745                       # number of ReadReq misses
system.cpu.dcache.WriteReq_misses::cpu.data      1212771                       # number of WriteReq misses
system.cpu.dcache.WriteReq_misses::total      1212771                       # number of WriteReq misses
system.cpu.dcache.demand_misses::cpu.data      1282516                       # number of demand (read+write) misses
system.cpu.dcache.demand_misses::total        1282516                       # number of demand (read+write) misses
system.cpu.dcache.overall_misses::cpu.data      1282516                       # number of overall misses
system.cpu.dcache.overall_misses::total       1282516                       # number of overall misses
system.cpu.dcache.ReadReq_miss_latency::cpu.data    848256000                       # number of ReadReq miss cycles
system.cpu.dcache.ReadReq_miss_latency::total    848256000                       # number of ReadReq miss cycles
system.cpu.dcache.WriteReq_miss_latency::cpu.data  16439038800                       # number of WriteReq miss cycles
system.cpu.dcache.WriteReq_miss_latency::total  16439038800                       # number of WriteReq miss cycles
system.cpu.dcache.demand_miss_latency::cpu.data  17287294800                       # number of demand (read+write) miss cycles
system.cpu.dcache.demand_miss_latency::total  17287294800                       # number of demand (read+write) miss cycles
system.cpu.dcache.overall_miss_latency::cpu.data  17287294800                       # number of overall miss cycles
system.cpu.dcache.overall_miss_latency::total  17287294800                       # number of overall miss cycles
system.cpu.dcache.ReadReq_accesses::cpu.data     23854000                       # number of ReadReq accesses(hits+misses)
system.cpu.dcache.ReadReq_accesses::total     23854000                       # number of ReadReq accesses(hits+misses)
system.cpu.dcache.WriteReq_accesses::cpu.data      7334621                       # number of WriteReq accesses(hits+misses)
system.cpu.dcache.WriteReq_accesses::total      7334621                       # number of WriteReq accesses(hits+misses)
system.cpu.dcache.demand_accesses::cpu.data     31188621                       # number of demand (read+write) accesses
system.cpu.dcache.demand_accesses::total     31188621                       # number of demand (read+write) accesses
system.cpu.dcache.overall_accesses::cpu.data     31188621                       # number of overall (read+write) accesses
system.cpu.dcache.overall_accesses::total     31188621                       # number of overall (read+write) accesses
system.cpu.dcache.ReadReq_miss_rate::cpu.data     0.002924                       # miss rate for ReadReq accesses
system.cpu.dcache.ReadReq_miss_rate::total     0.002924                       # miss rate for ReadReq accesses
system.cpu.dcache.WriteReq_miss_rate::cpu.data     0.165349                       # miss rate for WriteReq accesses
system.cpu.dcache.WriteReq_miss_rate::total     0.165349                       # miss rate for WriteReq accesses
system.cpu.dcache.demand_miss_rate::cpu.data     0.041121                       # miss rate for demand accesses
system.cpu.dcache.demand_miss_rate::total     0.041121                       # miss rate for demand accesses
system.cpu.dcache.overall_miss_rate::cpu.data     0.041121                       # miss rate for overall accesses
system.cpu.dcache.overall_miss_rate::total     0.041121                       # miss rate for overall accesses
system.cpu.dcache.ReadReq_avg_miss_latency::cpu.data 12162.248190                       # average ReadReq miss latency
system.cpu.dcache.ReadReq_avg_miss_latency::total 12162.248190                       # average ReadReq miss latency
system.cpu.dcache.WriteReq_avg_miss_latency::cpu.data 13554.940545                       # average WriteReq miss latency
system.cpu.dcache.WriteReq_avg_miss_latency::total 13554.940545                       # average WriteReq miss latency
system.cpu.dcache.demand_avg_miss_latency::cpu.data 13479.204002                       # average overall miss latency
system.cpu.dcache.demand_avg_miss_latency::total 13479.204002                       # average overall miss latency
system.cpu.dcache.overall_avg_miss_latency::cpu.data 13479.204002                       # average overall miss latency
system.cpu.dcache.overall_avg_miss_latency::total 13479.204002                       # average overall miss latency
system.cpu.dcache.blocked_cycles::no_mshrs            0                       # number of cycles access was blocked
system.cpu.dcache.blocked_cycles::no_targets            0                       # number of cycles access was blocked
system.cpu.dcache.blocked::no_mshrs                 0                       # number of cycles access was blocked
system.cpu.dcache.blocked::no_targets               0                       # number of cycles access was blocked
system.cpu.dcache.avg_blocked_cycles::no_mshrs          nan                       # average number of cycles each access was blocked
system.cpu.dcache.avg_blocked_cycles::no_targets          nan                       # average number of cycles each access was blocked
system.cpu.dcache.writebacks::writebacks      1276475                       # number of writebacks
system.cpu.dcache.writebacks::total           1276475                       # number of writebacks
system.cpu.dcache.ReadReq_mshr_misses::cpu.data        69745                       # number of ReadReq MSHR misses
system.cpu.dcache.ReadReq_mshr_misses::total        69745                       # number of ReadReq MSHR misses
system.cpu.dcache.WriteReq_mshr_misses::cpu.data      1212771                       # number of WriteReq MSHR misses
system.cpu.dcache.WriteReq_mshr_misses::total      1212771                       # number of WriteReq MSHR misses
system.cpu.dcache.demand_mshr_misses::cpu.data      1282516                       # number of demand (read+write) MSHR misses
system.cpu.dcache.demand_mshr_misses::total      1282516                       # number of demand (read+write) MSHR misses
system.cpu.dcache.overall_mshr_misses::cpu.data      1282516                       # number of overall MSHR misses
system.cpu.dcache.overall_mshr_misses::total      1282516                       # number of overall MSHR misses
system.cpu.dcache.ReadReq_mshr_miss_latency::cpu.data    792460000                       # number of ReadReq MSHR miss cycles
system.cpu.dcache.ReadReq_mshr_miss_latency::total    792460000                       # number of ReadReq MSHR miss cycles
system.cpu.dcache.WriteReq_mshr_miss_latency::cpu.data  15468822000                       # number of WriteReq MSHR miss cycles
system.cpu.dcache.WriteReq_mshr_miss_latency::total  15468822000                       # number of WriteReq MSHR miss cycles
system.cpu.dcache.demand_mshr_miss_latency::cpu.data  16261282000                       # number of demand (read+write) MSHR miss cycles
system.cpu.dcache.demand_mshr_miss_latency::total  16261282000                       # number of demand (read+write) MSHR miss cycles
system.cpu.dcache.overall_mshr_miss_latency::cpu.data  16261282000                       # number of overall MSHR miss cycles
system.cpu.dcache.overall_mshr_miss_latency::total  16261282000                       # number of overall MSHR miss cycles
system.cpu.dcache.ReadReq_mshr_miss_rate::cpu.data     0.002924                       # mshr miss rate for ReadReq accesses
system.cpu.dcache.ReadReq_mshr_miss_rate::total     0.002924                       # mshr miss rate for ReadReq accesses
system.cpu.dcache.WriteReq_mshr_miss_rate::cpu.data     0.165349                       # mshr miss rate for WriteReq accesses
system.cpu.dcache.WriteReq_mshr_miss_rate::total     0.165349                       # mshr miss rate for WriteReq accesses
system.cpu.dcache.demand_mshr_miss_rate::cpu.data     0.041121                       # mshr miss rate for demand accesses
system.cpu.dcache.demand_mshr_miss_rate::total     0.041121                       # mshr miss rate for demand accesses
system.cpu.dcache.overall_mshr_miss_rate::cpu.data     0.041121                       # mshr miss rate for overall accesses
system.cpu.dcache.overall_mshr_miss_rate::total     0.041121                       # mshr miss rate for overall accesses
system.cpu.dcache.ReadReq_avg_mshr_miss_latency::cpu.data 11362.248190                       # average ReadReq mshr miss latency
system.cpu.dcache.ReadReq_avg_mshr_miss_latency::total 11362.248190                       # average ReadReq mshr miss latency
system.cpu.dcache.WriteReq_avg_mshr_miss_latency::cpu.data 12754.940545                       # average WriteReq mshr miss latency
system.cpu.dcache.WriteReq_avg_mshr_miss_latency::total 12754.940545                       # average WriteReq mshr miss latency
system.cpu.dcache.demand_avg_mshr_miss_latency::cpu.data 12679.204002                       # average overall mshr miss latency
system.cpu.dcache.demand_avg_mshr_miss_latency::total 12679.204002                       # average overall mshr miss latency
system.cpu.dcache.overall_avg_mshr_miss_latency::cpu.data 12679.204002                       # average overall mshr miss latency
system.cpu.dcache.overall_avg_mshr_miss_latency::total 12679.204002                       # average overall mshr miss latency
system.cpu.icache.tags.pwrStateResidencyTicks::UNDEFINED  91930503200                       # Cumulative time (in ticks) in various power states
system.cpu.icache.tags.replacements               232                       # number of replacements
system.cpu.icache.tags.tagsinuse           576.156284                       # Cycle average of tags in use
system.cpu.icache.tags.total_refs            63317288                       # Total number of references to valid blocks.
system.cpu.icache.tags.sampled_refs               886                       # Sample count of references to valid blocks.
system.cpu.icache.tags.avg_refs          71464.207675                       # Average number of references to valid blocks.
system.cpu.icache.tags.warmup_cycle                 0                       # Cycle when the warmup percentage was hit.
system.cpu.icache.tags.occ_blocks::cpu.inst   576.156284                       # Average occupied blocks per requestor
system.cpu.icache.tags.occ_percent::cpu.inst     0.562653                       # Average percentage of cache occupancy
system.cpu.icache.tags.occ_percent::total     0.562653                       # Average percentage of cache occupancy
system.cpu.icache.tags.occ_task_id_blocks::1024          654                       # Occupied blocks per task id
system.cpu.icache.tags.age_task_id_blocks_1024::0           76                       # Occupied blocks per task id
system.cpu.icache.tags.age_task_id_blocks_1024::1           89                       # Occupied blocks per task id
system.cpu.icache.tags.age_task_id_blocks_1024::4          489                       # Occupied blocks per task id
system.cpu.icache.tags.occ_task_id_percent::1024     0.638672                       # Percentage of cache occupancy per task id
system.cpu.icache.tags.tag_accesses          63319060                       # Number of tag accesses
system.cpu.icache.tags.data_accesses         63319060                       # Number of data accesses
system.cpu.icache.pwrStateResidencyTicks::UNDEFINED  91930503200                       # Cumulative time (in ticks) in various power states
system.cpu.icache.ReadReq_hits::cpu.inst     63317288                       # number of ReadReq hits
system.cpu.icache.ReadReq_hits::total        63317288                       # number of ReadReq hits
system.cpu.icache.demand_hits::cpu.inst      63317288                       # number of demand (read+write) hits
system.cpu.icache.demand_hits::total         63317288                       # number of demand (read+write) hits
system.cpu.icache.overall_hits::cpu.inst     63317288                       # number of overall hits
system.cpu.icache.overall_hits::total        63317288                       # number of overall hits
system.cpu.icache.ReadReq_misses::cpu.inst          886                       # number of ReadReq misses
system.cpu.icache.ReadReq_misses::total           886                       # number of ReadReq misses
system.cpu.icache.demand_misses::cpu.inst          886                       # number of demand (read+write) misses
system.cpu.icache.demand_misses::total            886                       # number of demand (read+write) misses
system.cpu.icache.overall_misses::cpu.inst          886                       # number of overall misses
system.cpu.icache.overall_misses::total           886                       # number of overall misses
system.cpu.icache.ReadReq_miss_latency::cpu.inst     64500000                       # number of ReadReq miss cycles
system.cpu.icache.ReadReq_miss_latency::total     64500000                       # number of ReadReq miss cycles
system.cpu.icache.demand_miss_latency::cpu.inst     64500000                       # number of demand (read+write) miss cycles
system.cpu.icache.demand_miss_latency::total     64500000                       # number of demand (read+write) miss cycles
system.cpu.icache.overall_miss_latency::cpu.inst     64500000                       # number of overall miss cycles
system.cpu.icache.overall_miss_latency::total     64500000                       # number of overall miss cycles
system.cpu.icache.ReadReq_accesses::cpu.inst     63318174                       # number of ReadReq accesses(hits+misses)
system.cpu.icache.ReadReq_accesses::total     63318174                       # number of ReadReq accesses(hits+misses)
system.cpu.icache.demand_accesses::cpu.inst     63318174                       # number of demand (read+write) accesses
system.cpu.icache.demand_accesses::total     63318174                       # number of demand (read+write) accesses
system.cpu.icache.overall_accesses::cpu.inst     63318174                       # number of overall (read+write) accesses
system.cpu.icache.overall_accesses::total     63318174                       # number of overall (read+write) accesses
system.cpu.icache.ReadReq_miss_rate::cpu.inst     0.000014                       # miss rate for ReadReq accesses
system.cpu.icache.ReadReq_miss_rate::total     0.000014                       # miss rate for ReadReq accesses
system.cpu.icache.demand_miss_rate::cpu.inst     0.000014                       # miss rate for demand accesses
system.cpu.icache.demand_miss_rate::total     0.000014                       # miss rate for demand accesses
system.cpu.icache.overall_miss_rate::cpu.inst     0.000014                       # miss rate for overall accesses
system.cpu.icache.overall_miss_rate::total     0.000014                       # miss rate for overall accesses
system.cpu.icache.ReadReq_avg_miss_latency::cpu.inst 72799.097065                       # average ReadReq miss latency
system.cpu.icache.ReadReq_avg_miss_latency::total 72799.097065                       # average ReadReq miss latency
system.cpu.icache.demand_avg_miss_latency::cpu.inst 72799.097065                       # average overall miss latency
system.cpu.icache.demand_avg_miss_latency::total 72799.097065                       # average overall miss latency
system.cpu.icache.overall_avg_miss_latency::cpu.inst 72799.097065                       # average overall miss latency
system.cpu.icache.overall_avg_miss_latency::total 72799.097065                       # average overall miss latency
system.cpu.icache.blocked_cycles::no_mshrs            0                       # number of cycles access was blocked
system.cpu.icache.blocked_cycles::no_targets            0                       # number of cycles access was blocked
system.cpu.icache.blocked::no_mshrs                 0                       # number of cycles access was blocked
system.cpu.icache.blocked::no_targets               0                       # number of cycles access was blocked
system.cpu.icache.avg_blocked_cycles::no_mshrs          nan                       # average number of cycles each access was blocked
system.cpu.icache.avg_blocked_cycles::no_targets          nan                       # average number of cycles each access was blocked
system.cpu.icache.ReadReq_mshr_misses::cpu.inst          886                       # number of ReadReq MSHR misses
system.cpu.icache.ReadReq_mshr_misses::total          886                       # number of ReadReq MSHR misses
system.cpu.icache.demand_mshr_misses::cpu.inst          886                       # number of demand (read+write) MSHR misses
system.cpu.icache.demand_mshr_misses::total          886                       # number of demand (read+write) MSHR misses
system.cpu.icache.overall_mshr_misses::cpu.inst          886                       # number of overall MSHR misses
system.cpu.icache.overall_mshr_misses::total          886                       # number of overall MSHR misses
system.cpu.icache.ReadReq_mshr_miss_latency::cpu.inst     63791200                       # number of ReadReq MSHR miss cycles
system.cpu.icache.ReadReq_mshr_miss_latency::total     63791200                       # number of ReadReq MSHR miss cycles
system.cpu.icache.demand_mshr_miss_latency::cpu.inst     63791200                       # number of demand (read+write) MSHR miss cycles
system.cpu.icache.demand_mshr_miss_latency::total     63791200                       # number of demand (read+write) MSHR miss cycles
system.cpu.icache.overall_mshr_miss_latency::cpu.inst     63791200                       # number of overall MSHR miss cycles
system.cpu.icache.overall_mshr_miss_latency::total     63791200                       # number of overall MSHR miss cycles
system.cpu.icache.ReadReq_mshr_miss_rate::cpu.inst     0.000014                       # mshr miss rate for ReadReq accesses
system.cpu.icache.ReadReq_mshr_miss_rate::total     0.000014                       # mshr miss rate for ReadReq accesses
system.cpu.icache.demand_mshr_miss_rate::cpu.inst     0.000014                       # mshr miss rate for demand accesses
system.cpu.icache.demand_mshr_miss_rate::total     0.000014                       # mshr miss rate for demand accesses
system.cpu.icache.overall_mshr_miss_rate::cpu.inst     0.000014                       # mshr miss rate for overall accesses
system.cpu.icache.overall_mshr_miss_rate::total     0.000014                       # mshr miss rate for overall accesses
system.cpu.icache.ReadReq_avg_mshr_miss_latency::cpu.inst 71999.097065                       # average ReadReq mshr miss latency
system.cpu.icache.ReadReq_avg_mshr_miss_latency::total 71999.097065                       # average ReadReq mshr miss latency
system.cpu.icache.demand_avg_mshr_miss_latency::cpu.inst 71999.097065                       # average overall mshr miss latency
system.cpu.icache.demand_avg_mshr_miss_latency::total 71999.097065                       # average overall mshr miss latency
system.cpu.icache.overall_avg_mshr_miss_latency::cpu.inst 71999.097065                       # average overall mshr miss latency
system.cpu.icache.overall_avg_mshr_miss_latency::total 71999.097065                       # average overall mshr miss latency
system.l2bus.snoop_filter.tot_requests        2564102                       # Total number of requests made to the snoop filter.
system.l2bus.snoop_filter.hit_single_requests      1280701                       # Number of requests hitting in the snoop filter with a single holder of the requested data.
system.l2bus.snoop_filter.hit_multi_requests            2                       # Number of requests hitting in the snoop filter with multiple (>1) holders of the requested data.
system.l2bus.snoop_filter.tot_snoops              238                       # Total number of snoops made to the snoop filter.
system.l2bus.snoop_filter.hit_single_snoops          238                       # Number of snoops hitting in the snoop filter with a single holder of the requested data.
system.l2bus.snoop_filter.hit_multi_snoops            0                       # Number of snoops hitting in the snoop filter with multiple (>1) holders of the requested data.
system.l2bus.pwrStateResidencyTicks::UNDEFINED  91930503200                       # Cumulative time (in ticks) in various power states
system.l2bus.trans_dist::ReadResp               70631                       # Transaction distribution
system.l2bus.trans_dist::WritebackDirty       1276927                       # Transaction distribution
system.l2bus.trans_dist::CleanEvict              6256                       # Transaction distribution
system.l2bus.trans_dist::ReadExReq            1212771                       # Transaction distribution
system.l2bus.trans_dist::ReadExResp           1212771                       # Transaction distribution
system.l2bus.trans_dist::ReadSharedReq          70631                       # Transaction distribution
system.l2bus.pkt_count_system.cpu.icache.mem_side::system.l2cache.cpu_side         2004                       # Packet count per connected master and slave (bytes)
system.l2bus.pkt_count_system.cpu.dcache.mem_side::system.l2cache.cpu_side      3845500                       # Packet count per connected master and slave (bytes)
system.l2bus.pkt_count::total                 3847504                       # Packet count per connected master and slave (bytes)
system.l2bus.pkt_size_system.cpu.icache.mem_side::system.l2cache.cpu_side        56704                       # Cumulative packet size per connected master and slave (bytes)
system.l2bus.pkt_size_system.cpu.dcache.mem_side::system.l2cache.cpu_side    163775424                       # Cumulative packet size per connected master and slave (bytes)
system.l2bus.pkt_size::total                163832128                       # Cumulative packet size per connected master and slave (bytes)
system.l2bus.snoops                              2483                       # Total snoops (count)
system.l2bus.snoopTraffic                       28928                       # Total snoop traffic (bytes)
system.l2bus.snoop_fanout::samples            1285885                       # Request fanout histogram
system.l2bus.snoop_fanout::mean              0.000187                       # Request fanout histogram
system.l2bus.snoop_fanout::stdev             0.013689                       # Request fanout histogram
system.l2bus.snoop_fanout::underflows               0      0.00%      0.00% # Request fanout histogram
system.l2bus.snoop_fanout::0                  1285644     99.98%     99.98% # Request fanout histogram
system.l2bus.snoop_fanout::1                      241      0.02%    100.00% # Request fanout histogram
system.l2bus.snoop_fanout::2                        0      0.00%    100.00% # Request fanout histogram
system.l2bus.snoop_fanout::overflows                0      0.00%    100.00% # Request fanout histogram
system.l2bus.snoop_fanout::min_value                0                       # Request fanout histogram
system.l2bus.snoop_fanout::max_value                1                       # Request fanout histogram
system.l2bus.snoop_fanout::total              1285885                       # Request fanout histogram
system.l2bus.reqLayer0.occupancy           2046820800                       # Layer occupancy (ticks)
system.l2bus.reqLayer0.utilization                2.2                       # Layer utilization (%)
system.l2bus.respLayer0.occupancy             1063200                       # Layer occupancy (ticks)
system.l2bus.respLayer0.utilization               0.0                       # Layer utilization (%)
system.l2bus.respLayer1.occupancy          1539019200                       # Layer occupancy (ticks)
system.l2bus.respLayer1.utilization               1.7                       # Layer utilization (%)
system.l2cache.tags.pwrStateResidencyTicks::UNDEFINED  91930503200                       # Cumulative time (in ticks) in various power states
system.l2cache.tags.replacements                 2483                       # number of replacements
system.l2cache.tags.tagsinuse            56337.177023                       # Cycle average of tags in use
system.l2cache.tags.total_refs                2498224                       # Total number of references to valid blocks.
system.l2cache.tags.sampled_refs                65840                       # Sample count of references to valid blocks.
system.l2cache.tags.avg_refs                37.943864                       # Average number of references to valid blocks.
system.l2cache.tags.warmup_cycle                    0                       # Cycle when the warmup percentage was hit.
system.l2cache.tags.occ_blocks::cpu.inst   474.313179                       # Average occupied blocks per requestor
system.l2cache.tags.occ_blocks::cpu.data 55862.863844                       # Average occupied blocks per requestor
system.l2cache.tags.occ_percent::cpu.inst     0.007237                       # Average percentage of cache occupancy
system.l2cache.tags.occ_percent::cpu.data     0.852400                       # Average percentage of cache occupancy
system.l2cache.tags.occ_percent::total       0.859637                       # Average percentage of cache occupancy
system.l2cache.tags.occ_task_id_blocks::1024        63357                       # Occupied blocks per task id
system.l2cache.tags.age_task_id_blocks_1024::0           97                       # Occupied blocks per task id
system.l2cache.tags.age_task_id_blocks_1024::1          170                       # Occupied blocks per task id
system.l2cache.tags.age_task_id_blocks_1024::3            3                       # Occupied blocks per task id
system.l2cache.tags.age_task_id_blocks_1024::4        63087                       # Occupied blocks per task id
system.l2cache.tags.occ_task_id_percent::1024     0.966751                       # Percentage of cache occupancy per task id
system.l2cache.tags.tag_accesses             20578640                       # Number of tag accesses
system.l2cache.tags.data_accesses            20578640                       # Number of data accesses
system.l2cache.pwrStateResidencyTicks::UNDEFINED  91930503200                       # Cumulative time (in ticks) in various power states
system.l2cache.WritebackDirty_hits::writebacks      1276475                       # number of WritebackDirty hits
system.l2cache.WritebackDirty_hits::total      1276475                       # number of WritebackDirty hits
system.l2cache.ReadExReq_hits::cpu.data       1149705                       # number of ReadExReq hits
system.l2cache.ReadExReq_hits::total          1149705                       # number of ReadExReq hits
system.l2cache.ReadSharedReq_hits::cpu.inst           35                       # number of ReadSharedReq hits
system.l2cache.ReadSharedReq_hits::cpu.data        67822                       # number of ReadSharedReq hits
system.l2cache.ReadSharedReq_hits::total        67857                       # number of ReadSharedReq hits
system.l2cache.demand_hits::cpu.inst               35                       # number of demand (read+write) hits
system.l2cache.demand_hits::cpu.data          1217527                       # number of demand (read+write) hits
system.l2cache.demand_hits::total             1217562                       # number of demand (read+write) hits
system.l2cache.overall_hits::cpu.inst              35                       # number of overall hits
system.l2cache.overall_hits::cpu.data         1217527                       # number of overall hits
system.l2cache.overall_hits::total            1217562                       # number of overall hits
system.l2cache.ReadExReq_misses::cpu.data        63066                       # number of ReadExReq misses
system.l2cache.ReadExReq_misses::total          63066                       # number of ReadExReq misses
system.l2cache.ReadSharedReq_misses::cpu.inst          851                       # number of ReadSharedReq misses
system.l2cache.ReadSharedReq_misses::cpu.data         1923                       # number of ReadSharedReq misses
system.l2cache.ReadSharedReq_misses::total         2774                       # number of ReadSharedReq misses
system.l2cache.demand_misses::cpu.inst            851                       # number of demand (read+write) misses
system.l2cache.demand_misses::cpu.data          64989                       # number of demand (read+write) misses
system.l2cache.demand_misses::total             65840                       # number of demand (read+write) misses
system.l2cache.overall_misses::cpu.inst           851                       # number of overall misses
system.l2cache.overall_misses::cpu.data         64989                       # number of overall misses
system.l2cache.overall_misses::total            65840                       # number of overall misses
system.l2cache.ReadExReq_miss_latency::cpu.data   4355974800                       # number of ReadExReq miss cycles
system.l2cache.ReadExReq_miss_latency::total   4355974800                       # number of ReadExReq miss cycles
system.l2cache.ReadSharedReq_miss_latency::cpu.inst     62431200                       # number of ReadSharedReq miss cycles
system.l2cache.ReadSharedReq_miss_latency::cpu.data    139060400                       # number of ReadSharedReq miss cycles
system.l2cache.ReadSharedReq_miss_latency::total    201491600                       # number of ReadSharedReq miss cycles
system.l2cache.demand_miss_latency::cpu.inst     62431200                       # number of demand (read+write) miss cycles
system.l2cache.demand_miss_latency::cpu.data   4495035200                       # number of demand (read+write) miss cycles
system.l2cache.demand_miss_latency::total   4557466400                       # number of demand (read+write) miss cycles
system.l2cache.overall_miss_latency::cpu.inst     62431200                       # number of overall miss cycles
system.l2cache.overall_miss_latency::cpu.data   4495035200                       # number of overall miss cycles
system.l2cache.overall_miss_latency::total   4557466400                       # number of overall miss cycles
system.l2cache.WritebackDirty_accesses::writebacks      1276475                       # number of WritebackDirty accesses(hits+misses)
system.l2cache.WritebackDirty_accesses::total      1276475                       # number of WritebackDirty accesses(hits+misses)
system.l2cache.ReadExReq_accesses::cpu.data      1212771                       # number of ReadExReq accesses(hits+misses)
system.l2cache.ReadExReq_accesses::total      1212771                       # number of ReadExReq accesses(hits+misses)
system.l2cache.ReadSharedReq_accesses::cpu.inst          886                       # number of ReadSharedReq accesses(hits+misses)
system.l2cache.ReadSharedReq_accesses::cpu.data        69745                       # number of ReadSharedReq accesses(hits+misses)
system.l2cache.ReadSharedReq_accesses::total        70631                       # number of ReadSharedReq accesses(hits+misses)
system.l2cache.demand_accesses::cpu.inst          886                       # number of demand (read+write) accesses
system.l2cache.demand_accesses::cpu.data      1282516                       # number of demand (read+write) accesses
system.l2cache.demand_accesses::total         1283402                       # number of demand (read+write) accesses
system.l2cache.overall_accesses::cpu.inst          886                       # number of overall (read+write) accesses
system.l2cache.overall_accesses::cpu.data      1282516                       # number of overall (read+write) accesses
system.l2cache.overall_accesses::total        1283402                       # number of overall (read+write) accesses
system.l2cache.ReadExReq_miss_rate::cpu.data     0.052002                       # miss rate for ReadExReq accesses
system.l2cache.ReadExReq_miss_rate::total     0.052002                       # miss rate for ReadExReq accesses
system.l2cache.ReadSharedReq_miss_rate::cpu.inst     0.960497                       # miss rate for ReadSharedReq accesses
system.l2cache.ReadSharedReq_miss_rate::cpu.data     0.027572                       # miss rate for ReadSharedReq accesses
system.l2cache.ReadSharedReq_miss_rate::total     0.039275                       # miss rate for ReadSharedReq accesses
system.l2cache.demand_miss_rate::cpu.inst     0.960497                       # miss rate for demand accesses
system.l2cache.demand_miss_rate::cpu.data     0.050673                       # miss rate for demand accesses
system.l2cache.demand_miss_rate::total       0.051301                       # miss rate for demand accesses
system.l2cache.overall_miss_rate::cpu.inst     0.960497                       # miss rate for overall accesses
system.l2cache.overall_miss_rate::cpu.data     0.050673                       # miss rate for overall accesses
system.l2cache.overall_miss_rate::total      0.051301                       # miss rate for overall accesses
system.l2cache.ReadExReq_avg_miss_latency::cpu.data 69070.097993                       # average ReadExReq miss latency
system.l2cache.ReadExReq_avg_miss_latency::total 69070.097993                       # average ReadExReq miss latency
system.l2cache.ReadSharedReq_avg_miss_latency::cpu.inst 73362.162162                       # average ReadSharedReq miss latency
system.l2cache.ReadSharedReq_avg_miss_latency::cpu.data 72314.300572                       # average ReadSharedReq miss latency
system.l2cache.ReadSharedReq_avg_miss_latency::total 72635.760634                       # average ReadSharedReq miss latency
system.l2cache.demand_avg_miss_latency::cpu.inst 73362.162162                       # average overall miss latency
system.l2cache.demand_avg_miss_latency::cpu.data 69166.092723                       # average overall miss latency
system.l2cache.demand_avg_miss_latency::total 69220.328068                       # average overall miss latency
system.l2cache.overall_avg_miss_latency::cpu.inst 73362.162162                       # average overall miss latency
system.l2cache.overall_avg_miss_latency::cpu.data 69166.092723                       # average overall miss latency
system.l2cache.overall_avg_miss_latency::total 69220.328068                       # average overall miss latency
system.l2cache.blocked_cycles::no_mshrs             0                       # number of cycles access was blocked
system.l2cache.blocked_cycles::no_targets            0                       # number of cycles access was blocked
system.l2cache.blocked::no_mshrs                    0                       # number of cycles access was blocked
system.l2cache.blocked::no_targets                  0                       # number of cycles access was blocked
system.l2cache.avg_blocked_cycles::no_mshrs          nan                       # average number of cycles each access was blocked
system.l2cache.avg_blocked_cycles::no_targets          nan                       # average number of cycles each access was blocked
system.l2cache.writebacks::writebacks             452                       # number of writebacks
system.l2cache.writebacks::total                  452                       # number of writebacks
system.l2cache.CleanEvict_mshr_misses::writebacks           36                       # number of CleanEvict MSHR misses
system.l2cache.CleanEvict_mshr_misses::total           36                       # number of CleanEvict MSHR misses
system.l2cache.ReadExReq_mshr_misses::cpu.data        63066                       # number of ReadExReq MSHR misses
system.l2cache.ReadExReq_mshr_misses::total        63066                       # number of ReadExReq MSHR misses
system.l2cache.ReadSharedReq_mshr_misses::cpu.inst          851                       # number of ReadSharedReq MSHR misses
system.l2cache.ReadSharedReq_mshr_misses::cpu.data         1923                       # number of ReadSharedReq MSHR misses
system.l2cache.ReadSharedReq_mshr_misses::total         2774                       # number of ReadSharedReq MSHR misses
system.l2cache.demand_mshr_misses::cpu.inst          851                       # number of demand (read+write) MSHR misses
system.l2cache.demand_mshr_misses::cpu.data        64989                       # number of demand (read+write) MSHR misses
system.l2cache.demand_mshr_misses::total        65840                       # number of demand (read+write) MSHR misses
system.l2cache.overall_mshr_misses::cpu.inst          851                       # number of overall MSHR misses
system.l2cache.overall_mshr_misses::cpu.data        64989                       # number of overall MSHR misses
system.l2cache.overall_mshr_misses::total        65840                       # number of overall MSHR misses
system.l2cache.ReadExReq_mshr_miss_latency::cpu.data   3851446800                       # number of ReadExReq MSHR miss cycles
system.l2cache.ReadExReq_mshr_miss_latency::total   3851446800                       # number of ReadExReq MSHR miss cycles
system.l2cache.ReadSharedReq_mshr_miss_latency::cpu.inst     55623200                       # number of ReadSharedReq MSHR miss cycles
system.l2cache.ReadSharedReq_mshr_miss_latency::cpu.data    123676400                       # number of ReadSharedReq MSHR miss cycles
system.l2cache.ReadSharedReq_mshr_miss_latency::total    179299600                       # number of ReadSharedReq MSHR miss cycles
system.l2cache.demand_mshr_miss_latency::cpu.inst     55623200                       # number of demand (read+write) MSHR miss cycles
system.l2cache.demand_mshr_miss_latency::cpu.data   3975123200                       # number of demand (read+write) MSHR miss cycles
system.l2cache.demand_mshr_miss_latency::total   4030746400                       # number of demand (read+write) MSHR miss cycles
system.l2cache.overall_mshr_miss_latency::cpu.inst     55623200                       # number of overall MSHR miss cycles
system.l2cache.overall_mshr_miss_latency::cpu.data   3975123200                       # number of overall MSHR miss cycles
system.l2cache.overall_mshr_miss_latency::total   4030746400                       # number of overall MSHR miss cycles
system.l2cache.CleanEvict_mshr_miss_rate::writebacks          inf                       # mshr miss rate for CleanEvict accesses
system.l2cache.CleanEvict_mshr_miss_rate::total          inf                       # mshr miss rate for CleanEvict accesses
system.l2cache.ReadExReq_mshr_miss_rate::cpu.data     0.052002                       # mshr miss rate for ReadExReq accesses
system.l2cache.ReadExReq_mshr_miss_rate::total     0.052002                       # mshr miss rate for ReadExReq accesses
system.l2cache.ReadSharedReq_mshr_miss_rate::cpu.inst     0.960497                       # mshr miss rate for ReadSharedReq accesses
system.l2cache.ReadSharedReq_mshr_miss_rate::cpu.data     0.027572                       # mshr miss rate for ReadSharedReq accesses
system.l2cache.ReadSharedReq_mshr_miss_rate::total     0.039275                       # mshr miss rate for ReadSharedReq accesses
system.l2cache.demand_mshr_miss_rate::cpu.inst     0.960497                       # mshr miss rate for demand accesses
system.l2cache.demand_mshr_miss_rate::cpu.data     0.050673                       # mshr miss rate for demand accesses
system.l2cache.demand_mshr_miss_rate::total     0.051301                       # mshr miss rate for demand accesses
system.l2cache.overall_mshr_miss_rate::cpu.inst     0.960497                       # mshr miss rate for overall accesses
system.l2cache.overall_mshr_miss_rate::cpu.data     0.050673                       # mshr miss rate for overall accesses
system.l2cache.overall_mshr_miss_rate::total     0.051301                       # mshr miss rate for overall accesses
system.l2cache.ReadExReq_avg_mshr_miss_latency::cpu.data 61070.097993                       # average ReadExReq mshr miss latency
system.l2cache.ReadExReq_avg_mshr_miss_latency::total 61070.097993                       # average ReadExReq mshr miss latency
system.l2cache.ReadSharedReq_avg_mshr_miss_latency::cpu.inst 65362.162162                       # average ReadSharedReq mshr miss latency
system.l2cache.ReadSharedReq_avg_mshr_miss_latency::cpu.data 64314.300572                       # average ReadSharedReq mshr miss latency
system.l2cache.ReadSharedReq_avg_mshr_miss_latency::total 64635.760634                       # average ReadSharedReq mshr miss latency
system.l2cache.demand_avg_mshr_miss_latency::cpu.inst 65362.162162                       # average overall mshr miss latency
system.l2cache.demand_avg_mshr_miss_latency::cpu.data 61166.092723                       # average overall mshr miss latency
system.l2cache.demand_avg_mshr_miss_latency::total 61220.328068                       # average overall mshr miss latency
system.l2cache.overall_avg_mshr_miss_latency::cpu.inst 65362.162162                       # average overall mshr miss latency
system.l2cache.overall_avg_mshr_miss_latency::cpu.data 61166.092723                       # average overall mshr miss latency
system.l2cache.overall_avg_mshr_miss_latency::total 61220.328068                       # average overall mshr miss latency
system.membus.snoop_filter.tot_requests         68120                       # Total number of requests made to the snoop filter.
system.membus.snoop_filter.hit_single_requests         2280                       # Number of requests hitting in the snoop filter with a single holder of the requested data.
system.membus.snoop_filter.hit_multi_requests            0                       # Number of requests hitting in the snoop filter with multiple (>1) holders of the requested data.
system.membus.snoop_filter.tot_snoops               0                       # Total number of snoops made to the snoop filter.
system.membus.snoop_filter.hit_single_snoops            0                       # Number of snoops hitting in the snoop filter with a single holder of the requested data.
system.membus.snoop_filter.hit_multi_snoops            0                       # Number of snoops hitting in the snoop filter with multiple (>1) holders of the requested data.
system.membus.pwrStateResidencyTicks::UNDEFINED  91930503200                       # Cumulative time (in ticks) in various power states
system.membus.trans_dist::ReadResp               2774                       # Transaction distribution
system.membus.trans_dist::WritebackDirty          452                       # Transaction distribution
system.membus.trans_dist::CleanEvict             1828                       # Transaction distribution
system.membus.trans_dist::ReadExReq             63066                       # Transaction distribution
system.membus.trans_dist::ReadExResp            63066                       # Transaction distribution
system.membus.trans_dist::ReadSharedReq          2774                       # Transaction distribution
system.membus.pkt_count_system.l2cache.mem_side::system.mem_ctrl.port       133960                       # Packet count per connected master and slave (bytes)
system.membus.pkt_count_system.l2cache.mem_side::total       133960                       # Packet count per connected master and slave (bytes)
system.membus.pkt_count::total                 133960                       # Packet count per connected master and slave (bytes)
system.membus.pkt_size_system.l2cache.mem_side::system.mem_ctrl.port      4242688                       # Cumulative packet size per connected master and slave (bytes)
system.membus.pkt_size_system.l2cache.mem_side::total      4242688                       # Cumulative packet size per connected master and slave (bytes)
system.membus.pkt_size::total                 4242688                       # Cumulative packet size per connected master and slave (bytes)
system.membus.snoops                                0                       # Total snoops (count)
system.membus.snoopTraffic                          0                       # Total snoop traffic (bytes)
system.membus.snoop_fanout::samples             65840                       # Request fanout histogram
system.membus.snoop_fanout::mean                    0                       # Request fanout histogram
system.membus.snoop_fanout::stdev                   0                       # Request fanout histogram
system.membus.snoop_fanout::underflows              0      0.00%      0.00% # Request fanout histogram
system.membus.snoop_fanout::0                   65840    100.00%    100.00% # Request fanout histogram
system.membus.snoop_fanout::1                       0      0.00%    100.00% # Request fanout histogram
system.membus.snoop_fanout::overflows               0      0.00%    100.00% # Request fanout histogram
system.membus.snoop_fanout::min_value               0                       # Request fanout histogram
system.membus.snoop_fanout::max_value               0                       # Request fanout histogram
system.membus.snoop_fanout::total               65840                       # Request fanout histogram
system.membus.reqLayer2.occupancy            27971200                       # Layer occupancy (ticks)
system.membus.reqLayer2.utilization               0.0                       # Layer utilization (%)
system.membus.respLayer0.occupancy          136167250                       # Layer occupancy (ticks)
system.membus.respLayer0.utilization              0.1                       # Layer utilization (%)

---------- End Simulation Statistics   ----------
