
---------- Begin Simulation Statistics ----------
sim_seconds                                  0.004164                       # Number of seconds simulated
sim_ticks                                  4163649000                       # Number of ticks simulated
final_tick                                 4163649000                       # Number of ticks from beginning of simulation (restored from checkpoints and never reset)
sim_freq                                 1000000000000                       # Frequency of simulated ticks
host_inst_rate                                 101133                       # Simulator instruction rate (inst/s)
host_op_rate                                   187682                       # Simulator op (including micro ops) rate (op/s)
host_tick_rate                             2918850215                       # Simulator tick rate (ticks/s)
host_mem_usage                                 668416                       # Number of bytes of host memory used
host_seconds                                     1.43                       # Real time elapsed on the host
sim_insts                                      144262                       # Number of instructions simulated
sim_ops                                        267722                       # Number of ops (including micro ops) simulated
system.clk_domain.voltage_domain.voltage            1                       # Voltage in Volts
system.clk_domain.clock                          1000                       # Clock period in ticks
system.mem_ctrl.pwrStateResidencyTicks::UNDEFINED   4163649000                       # Cumulative time (in ticks) in various power states
system.mem_ctrl.bytes_read::cpu.inst          3432256                       # Number of bytes read from this memory
system.mem_ctrl.bytes_read::cpu.data           251401                       # Number of bytes read from this memory
system.mem_ctrl.bytes_read::total             3683657                       # Number of bytes read from this memory
system.mem_ctrl.bytes_inst_read::cpu.inst      3432256                       # Number of instructions bytes read from this memory
system.mem_ctrl.bytes_inst_read::total        3432256                       # Number of instructions bytes read from this memory
system.mem_ctrl.bytes_written::cpu.data         84855                       # Number of bytes written to this memory
system.mem_ctrl.bytes_written::total            84855                       # Number of bytes written to this memory
system.mem_ctrl.num_reads::cpu.inst             53629                       # Number of read requests responded to by this memory
system.mem_ctrl.num_reads::cpu.data             43694                       # Number of read requests responded to by this memory
system.mem_ctrl.num_reads::total                97323                       # Number of read requests responded to by this memory
system.mem_ctrl.num_writes::cpu.data            11381                       # Number of write requests responded to by this memory
system.mem_ctrl.num_writes::total               11381                       # Number of write requests responded to by this memory
system.mem_ctrl.bw_read::cpu.inst           824338459                       # Total read bandwidth from this memory (bytes/s)
system.mem_ctrl.bw_read::cpu.data            60379970                       # Total read bandwidth from this memory (bytes/s)
system.mem_ctrl.bw_read::total              884718428                       # Total read bandwidth from this memory (bytes/s)
system.mem_ctrl.bw_inst_read::cpu.inst      824338459                       # Instruction read bandwidth from this memory (bytes/s)
system.mem_ctrl.bw_inst_read::total         824338459                       # Instruction read bandwidth from this memory (bytes/s)
system.mem_ctrl.bw_write::cpu.data           20379960                       # Write bandwidth from this memory (bytes/s)
system.mem_ctrl.bw_write::total              20379960                       # Write bandwidth from this memory (bytes/s)
system.mem_ctrl.bw_total::cpu.inst          824338459                       # Total bandwidth to/from this memory (bytes/s)
system.mem_ctrl.bw_total::cpu.data           80759930                       # Total bandwidth to/from this memory (bytes/s)
system.mem_ctrl.bw_total::total             905098388                       # Total bandwidth to/from this memory (bytes/s)
system.mem_ctrl.readReqs                        97324                       # Number of read requests accepted
system.mem_ctrl.writeReqs                       11381                       # Number of write requests accepted
system.mem_ctrl.readBursts                      97324                       # Number of DRAM read bursts, including those serviced by the write queue
system.mem_ctrl.writeBursts                     11381                       # Number of DRAM write bursts, including those merged in the write queue
system.mem_ctrl.bytesReadDRAM                 6097024                       # Total number of bytes read from DRAM
system.mem_ctrl.bytesReadWrQ                   131712                       # Total number of bytes read from write queue
system.mem_ctrl.bytesWritten                    54272                       # Total number of bytes written to DRAM
system.mem_ctrl.bytesReadSys                  3683721                       # Total read bytes from the system interface side
system.mem_ctrl.bytesWrittenSys                 84855                       # Total written bytes from the system interface side
system.mem_ctrl.servicedByWrQ                    2058                       # Number of DRAM read bursts serviced by the write queue
system.mem_ctrl.mergedWrBursts                  10509                       # Number of DRAM write bursts merged with an existing one
system.mem_ctrl.neitherReadNorWriteReqs             0                       # Number of requests that are neither read nor write
system.mem_ctrl.perBankRdBursts::0               4055                       # Per bank write bursts
system.mem_ctrl.perBankRdBursts::1               2486                       # Per bank write bursts
system.mem_ctrl.perBankRdBursts::2               1748                       # Per bank write bursts
system.mem_ctrl.perBankRdBursts::3               1042                       # Per bank write bursts
system.mem_ctrl.perBankRdBursts::4               3141                       # Per bank write bursts
system.mem_ctrl.perBankRdBursts::5              30495                       # Per bank write bursts
system.mem_ctrl.perBankRdBursts::6              21409                       # Per bank write bursts
system.mem_ctrl.perBankRdBursts::7              15724                       # Per bank write bursts
system.mem_ctrl.perBankRdBursts::8               2087                       # Per bank write bursts
system.mem_ctrl.perBankRdBursts::9               1978                       # Per bank write bursts
system.mem_ctrl.perBankRdBursts::10              3122                       # Per bank write bursts
system.mem_ctrl.perBankRdBursts::11              2572                       # Per bank write bursts
system.mem_ctrl.perBankRdBursts::12               402                       # Per bank write bursts
system.mem_ctrl.perBankRdBursts::13               993                       # Per bank write bursts
system.mem_ctrl.perBankRdBursts::14              1367                       # Per bank write bursts
system.mem_ctrl.perBankRdBursts::15              2645                       # Per bank write bursts
system.mem_ctrl.perBankWrBursts::0                  3                       # Per bank write bursts
system.mem_ctrl.perBankWrBursts::1                  4                       # Per bank write bursts
system.mem_ctrl.perBankWrBursts::2                  0                       # Per bank write bursts
system.mem_ctrl.perBankWrBursts::3                  0                       # Per bank write bursts
system.mem_ctrl.perBankWrBursts::4                 25                       # Per bank write bursts
system.mem_ctrl.perBankWrBursts::5                125                       # Per bank write bursts
system.mem_ctrl.perBankWrBursts::6                203                       # Per bank write bursts
system.mem_ctrl.perBankWrBursts::7                 75                       # Per bank write bursts
system.mem_ctrl.perBankWrBursts::8                 33                       # Per bank write bursts
system.mem_ctrl.perBankWrBursts::9                112                       # Per bank write bursts
system.mem_ctrl.perBankWrBursts::10               123                       # Per bank write bursts
system.mem_ctrl.perBankWrBursts::11                80                       # Per bank write bursts
system.mem_ctrl.perBankWrBursts::12                 0                       # Per bank write bursts
system.mem_ctrl.perBankWrBursts::13                 6                       # Per bank write bursts
system.mem_ctrl.perBankWrBursts::14                49                       # Per bank write bursts
system.mem_ctrl.perBankWrBursts::15                10                       # Per bank write bursts
system.mem_ctrl.numRdRetry                          0                       # Number of times read queue was full causing retry
system.mem_ctrl.numWrRetry                          0                       # Number of times write queue was full causing retry
system.mem_ctrl.totGap                     4163642000                       # Total gap between requests
system.mem_ctrl.readPktSize::0                   7583                       # Read request sizes (log2)
system.mem_ctrl.readPktSize::1                   2618                       # Read request sizes (log2)
system.mem_ctrl.readPktSize::2                   7337                       # Read request sizes (log2)
system.mem_ctrl.readPktSize::3                  26156                       # Read request sizes (log2)
system.mem_ctrl.readPktSize::4                      0                       # Read request sizes (log2)
system.mem_ctrl.readPktSize::5                      0                       # Read request sizes (log2)
system.mem_ctrl.readPktSize::6                  53630                       # Read request sizes (log2)
system.mem_ctrl.writePktSize::0                   101                       # Write request sizes (log2)
system.mem_ctrl.writePktSize::1                    21                       # Write request sizes (log2)
system.mem_ctrl.writePktSize::2                  1340                       # Write request sizes (log2)
system.mem_ctrl.writePktSize::3                  9919                       # Write request sizes (log2)
system.mem_ctrl.writePktSize::4                     0                       # Write request sizes (log2)
system.mem_ctrl.writePktSize::5                     0                       # Write request sizes (log2)
system.mem_ctrl.writePktSize::6                     0                       # Write request sizes (log2)
system.mem_ctrl.rdQLenPdf::0                    58620                       # What read queue length does an incoming req see
system.mem_ctrl.rdQLenPdf::1                    32959                       # What read queue length does an incoming req see
system.mem_ctrl.rdQLenPdf::2                     3687                       # What read queue length does an incoming req see
system.mem_ctrl.rdQLenPdf::3                        0                       # What read queue length does an incoming req see
system.mem_ctrl.rdQLenPdf::4                        0                       # What read queue length does an incoming req see
system.mem_ctrl.rdQLenPdf::5                        0                       # What read queue length does an incoming req see
system.mem_ctrl.rdQLenPdf::6                        0                       # What read queue length does an incoming req see
system.mem_ctrl.rdQLenPdf::7                        0                       # What read queue length does an incoming req see
system.mem_ctrl.rdQLenPdf::8                        0                       # What read queue length does an incoming req see
system.mem_ctrl.rdQLenPdf::9                        0                       # What read queue length does an incoming req see
system.mem_ctrl.rdQLenPdf::10                       0                       # What read queue length does an incoming req see
system.mem_ctrl.rdQLenPdf::11                       0                       # What read queue length does an incoming req see
system.mem_ctrl.rdQLenPdf::12                       0                       # What read queue length does an incoming req see
system.mem_ctrl.rdQLenPdf::13                       0                       # What read queue length does an incoming req see
system.mem_ctrl.rdQLenPdf::14                       0                       # What read queue length does an incoming req see
system.mem_ctrl.rdQLenPdf::15                       0                       # What read queue length does an incoming req see
system.mem_ctrl.rdQLenPdf::16                       0                       # What read queue length does an incoming req see
system.mem_ctrl.rdQLenPdf::17                       0                       # What read queue length does an incoming req see
system.mem_ctrl.rdQLenPdf::18                       0                       # What read queue length does an incoming req see
system.mem_ctrl.rdQLenPdf::19                       0                       # What read queue length does an incoming req see
system.mem_ctrl.rdQLenPdf::20                       0                       # What read queue length does an incoming req see
system.mem_ctrl.rdQLenPdf::21                       0                       # What read queue length does an incoming req see
system.mem_ctrl.rdQLenPdf::22                       0                       # What read queue length does an incoming req see
system.mem_ctrl.rdQLenPdf::23                       0                       # What read queue length does an incoming req see
system.mem_ctrl.rdQLenPdf::24                       0                       # What read queue length does an incoming req see
system.mem_ctrl.rdQLenPdf::25                       0                       # What read queue length does an incoming req see
system.mem_ctrl.rdQLenPdf::26                       0                       # What read queue length does an incoming req see
system.mem_ctrl.rdQLenPdf::27                       0                       # What read queue length does an incoming req see
system.mem_ctrl.rdQLenPdf::28                       0                       # What read queue length does an incoming req see
system.mem_ctrl.rdQLenPdf::29                       0                       # What read queue length does an incoming req see
system.mem_ctrl.rdQLenPdf::30                       0                       # What read queue length does an incoming req see
system.mem_ctrl.rdQLenPdf::31                       0                       # What read queue length does an incoming req see
system.mem_ctrl.wrQLenPdf::0                        1                       # What write queue length does an incoming req see
system.mem_ctrl.wrQLenPdf::1                        1                       # What write queue length does an incoming req see
system.mem_ctrl.wrQLenPdf::2                        1                       # What write queue length does an incoming req see
system.mem_ctrl.wrQLenPdf::3                        1                       # What write queue length does an incoming req see
system.mem_ctrl.wrQLenPdf::4                        1                       # What write queue length does an incoming req see
system.mem_ctrl.wrQLenPdf::5                        1                       # What write queue length does an incoming req see
system.mem_ctrl.wrQLenPdf::6                        1                       # What write queue length does an incoming req see
system.mem_ctrl.wrQLenPdf::7                        1                       # What write queue length does an incoming req see
system.mem_ctrl.wrQLenPdf::8                        1                       # What write queue length does an incoming req see
system.mem_ctrl.wrQLenPdf::9                        1                       # What write queue length does an incoming req see
system.mem_ctrl.wrQLenPdf::10                       1                       # What write queue length does an incoming req see
system.mem_ctrl.wrQLenPdf::11                       1                       # What write queue length does an incoming req see
system.mem_ctrl.wrQLenPdf::12                       1                       # What write queue length does an incoming req see
system.mem_ctrl.wrQLenPdf::13                       1                       # What write queue length does an incoming req see
system.mem_ctrl.wrQLenPdf::14                       1                       # What write queue length does an incoming req see
system.mem_ctrl.wrQLenPdf::15                       1                       # What write queue length does an incoming req see
system.mem_ctrl.wrQLenPdf::16                       1                       # What write queue length does an incoming req see
system.mem_ctrl.wrQLenPdf::17                      48                       # What write queue length does an incoming req see
system.mem_ctrl.wrQLenPdf::18                      52                       # What write queue length does an incoming req see
system.mem_ctrl.wrQLenPdf::19                      53                       # What write queue length does an incoming req see
system.mem_ctrl.wrQLenPdf::20                      56                       # What write queue length does an incoming req see
system.mem_ctrl.wrQLenPdf::21                      55                       # What write queue length does an incoming req see
system.mem_ctrl.wrQLenPdf::22                      55                       # What write queue length does an incoming req see
system.mem_ctrl.wrQLenPdf::23                      54                       # What write queue length does an incoming req see
system.mem_ctrl.wrQLenPdf::24                      55                       # What write queue length does an incoming req see
system.mem_ctrl.wrQLenPdf::25                      53                       # What write queue length does an incoming req see
system.mem_ctrl.wrQLenPdf::26                      53                       # What write queue length does an incoming req see
system.mem_ctrl.wrQLenPdf::27                      54                       # What write queue length does an incoming req see
system.mem_ctrl.wrQLenPdf::28                      55                       # What write queue length does an incoming req see
system.mem_ctrl.wrQLenPdf::29                      53                       # What write queue length does an incoming req see
system.mem_ctrl.wrQLenPdf::30                      53                       # What write queue length does an incoming req see
system.mem_ctrl.wrQLenPdf::31                      53                       # What write queue length does an incoming req see
system.mem_ctrl.wrQLenPdf::32                      53                       # What write queue length does an incoming req see
system.mem_ctrl.wrQLenPdf::33                       0                       # What write queue length does an incoming req see
system.mem_ctrl.wrQLenPdf::34                       0                       # What write queue length does an incoming req see
system.mem_ctrl.wrQLenPdf::35                       0                       # What write queue length does an incoming req see
system.mem_ctrl.wrQLenPdf::36                       0                       # What write queue length does an incoming req see
system.mem_ctrl.wrQLenPdf::37                       0                       # What write queue length does an incoming req see
system.mem_ctrl.wrQLenPdf::38                       0                       # What write queue length does an incoming req see
system.mem_ctrl.wrQLenPdf::39                       0                       # What write queue length does an incoming req see
system.mem_ctrl.wrQLenPdf::40                       0                       # What write queue length does an incoming req see
system.mem_ctrl.wrQLenPdf::41                       0                       # What write queue length does an incoming req see
system.mem_ctrl.wrQLenPdf::42                       0                       # What write queue length does an incoming req see
system.mem_ctrl.wrQLenPdf::43                       0                       # What write queue length does an incoming req see
system.mem_ctrl.wrQLenPdf::44                       0                       # What write queue length does an incoming req see
system.mem_ctrl.wrQLenPdf::45                       0                       # What write queue length does an incoming req see
system.mem_ctrl.wrQLenPdf::46                       0                       # What write queue length does an incoming req see
system.mem_ctrl.wrQLenPdf::47                       0                       # What write queue length does an incoming req see
system.mem_ctrl.wrQLenPdf::48                       0                       # What write queue length does an incoming req see
system.mem_ctrl.wrQLenPdf::49                       0                       # What write queue length does an incoming req see
system.mem_ctrl.wrQLenPdf::50                       0                       # What write queue length does an incoming req see
system.mem_ctrl.wrQLenPdf::51                       0                       # What write queue length does an incoming req see
system.mem_ctrl.wrQLenPdf::52                       0                       # What write queue length does an incoming req see
system.mem_ctrl.wrQLenPdf::53                       0                       # What write queue length does an incoming req see
system.mem_ctrl.wrQLenPdf::54                       0                       # What write queue length does an incoming req see
system.mem_ctrl.wrQLenPdf::55                       0                       # What write queue length does an incoming req see
system.mem_ctrl.wrQLenPdf::56                       0                       # What write queue length does an incoming req see
system.mem_ctrl.wrQLenPdf::57                       0                       # What write queue length does an incoming req see
system.mem_ctrl.wrQLenPdf::58                       0                       # What write queue length does an incoming req see
system.mem_ctrl.wrQLenPdf::59                       0                       # What write queue length does an incoming req see
system.mem_ctrl.wrQLenPdf::60                       0                       # What write queue length does an incoming req see
system.mem_ctrl.wrQLenPdf::61                       0                       # What write queue length does an incoming req see
system.mem_ctrl.wrQLenPdf::62                       0                       # What write queue length does an incoming req see
system.mem_ctrl.wrQLenPdf::63                       0                       # What write queue length does an incoming req see
system.mem_ctrl.bytesPerActivate::samples        18310                       # Bytes accessed per row activation
system.mem_ctrl.bytesPerActivate::mean     335.760568                       # Bytes accessed per row activation
system.mem_ctrl.bytesPerActivate::gmean    196.319382                       # Bytes accessed per row activation
system.mem_ctrl.bytesPerActivate::stdev    344.822394                       # Bytes accessed per row activation
system.mem_ctrl.bytesPerActivate::0-127          6889     37.62%     37.62% # Bytes accessed per row activation
system.mem_ctrl.bytesPerActivate::128-255         2793     15.25%     52.88% # Bytes accessed per row activation
system.mem_ctrl.bytesPerActivate::256-383         3178     17.36%     70.23% # Bytes accessed per row activation
system.mem_ctrl.bytesPerActivate::384-511         1222      6.67%     76.91% # Bytes accessed per row activation
system.mem_ctrl.bytesPerActivate::512-639          345      1.88%     78.79% # Bytes accessed per row activation
system.mem_ctrl.bytesPerActivate::640-767          348      1.90%     80.69% # Bytes accessed per row activation
system.mem_ctrl.bytesPerActivate::768-895          451      2.46%     83.16% # Bytes accessed per row activation
system.mem_ctrl.bytesPerActivate::896-1023          538      2.94%     86.10% # Bytes accessed per row activation
system.mem_ctrl.bytesPerActivate::1024-1151         2546     13.90%    100.00% # Bytes accessed per row activation
system.mem_ctrl.bytesPerActivate::total         18310                       # Bytes accessed per row activation
system.mem_ctrl.rdPerTurnAround::samples           53                       # Reads before turning the bus around for writes
system.mem_ctrl.rdPerTurnAround::mean     1792.037736                       # Reads before turning the bus around for writes
system.mem_ctrl.rdPerTurnAround::gmean     527.883572                       # Reads before turning the bus around for writes
system.mem_ctrl.rdPerTurnAround::stdev    6401.901499                       # Reads before turning the bus around for writes
system.mem_ctrl.rdPerTurnAround::0-2047            50     94.34%     94.34% # Reads before turning the bus around for writes
system.mem_ctrl.rdPerTurnAround::2048-4095            1      1.89%     96.23% # Reads before turning the bus around for writes
system.mem_ctrl.rdPerTurnAround::18432-20479            1      1.89%     98.11% # Reads before turning the bus around for writes
system.mem_ctrl.rdPerTurnAround::43008-45055            1      1.89%    100.00% # Reads before turning the bus around for writes
system.mem_ctrl.rdPerTurnAround::total             53                       # Reads before turning the bus around for writes
system.mem_ctrl.wrPerTurnAround::samples           53                       # Writes before turning the bus around for reads
system.mem_ctrl.wrPerTurnAround::mean              16                       # Writes before turning the bus around for reads
system.mem_ctrl.wrPerTurnAround::gmean      16.000000                       # Writes before turning the bus around for reads
system.mem_ctrl.wrPerTurnAround::16                53    100.00%    100.00% # Writes before turning the bus around for reads
system.mem_ctrl.wrPerTurnAround::total             53                       # Writes before turning the bus around for reads
system.mem_ctrl.totQLat                    1400061500                       # Total ticks spent queuing
system.mem_ctrl.totMemAccLat               3186299000                       # Total ticks spent from burst creation until serviced by the DRAM
system.mem_ctrl.totBusLat                   476330000                       # Total ticks spent in databus transfers
system.mem_ctrl.avgQLat                      14696.34                       # Average queueing delay per DRAM burst
system.mem_ctrl.avgBusLat                     5000.00                       # Average bus latency per DRAM burst
system.mem_ctrl.avgMemAccLat                 33446.34                       # Average memory access latency per DRAM burst
system.mem_ctrl.avgRdBW                       1464.35                       # Average DRAM read bandwidth in MiByte/s
system.mem_ctrl.avgWrBW                         13.03                       # Average achieved write bandwidth in MiByte/s
system.mem_ctrl.avgRdBWSys                     884.73                       # Average system read bandwidth in MiByte/s
system.mem_ctrl.avgWrBWSys                      20.38                       # Average system write bandwidth in MiByte/s
system.mem_ctrl.peakBW                       12800.00                       # Theoretical peak bandwidth in MiByte/s
system.mem_ctrl.busUtil                         11.54                       # Data bus utilization in percentage
system.mem_ctrl.busUtilRead                     11.44                       # Data bus utilization in percentage for reads
system.mem_ctrl.busUtilWrite                     0.10                       # Data bus utilization in percentage for writes
system.mem_ctrl.avgRdQLen                        1.59                       # Average read queue length when enqueuing
system.mem_ctrl.avgWrQLen                       27.47                       # Average write queue length when enqueuing
system.mem_ctrl.readRowHits                     77029                       # Number of row buffer hits during reads
system.mem_ctrl.writeRowHits                      767                       # Number of row buffer hits during writes
system.mem_ctrl.readRowHitRate                  80.86                       # Row buffer hit rate for reads
system.mem_ctrl.writeRowHitRate                 87.96                       # Row buffer hit rate for writes
system.mem_ctrl.avgGap                       38302.21                       # Average gap between requests
system.mem_ctrl.pageHitRate                     80.92                       # Row buffer hit rate, read and write combined
system.mem_ctrl_0.actEnergy                 118673940                       # Energy for activate commands per rank (pJ)
system.mem_ctrl_0.preEnergy                  63065310                       # Energy for precharge commands per rank (pJ)
system.mem_ctrl_0.readEnergy                571914000                       # Energy for read commands per rank (pJ)
system.mem_ctrl_0.writeEnergy                 2270700                       # Energy for write commands per rank (pJ)
system.mem_ctrl_0.refreshEnergy          327603120.000000                       # Energy for refresh commands per rank (pJ)
system.mem_ctrl_0.actBackEnergy             979884150                       # Energy for active background per rank (pJ)
system.mem_ctrl_0.preBackEnergy              10963200                       # Energy for precharge background per rank (pJ)
system.mem_ctrl_0.actPowerDownEnergy        891853350                       # Energy for active power-down per rank (pJ)
system.mem_ctrl_0.prePowerDownEnergy          5816640                       # Energy for precharge power-down per rank (pJ)
system.mem_ctrl_0.selfRefreshEnergy           4215840                       # Energy for self refresh per rank (pJ)
system.mem_ctrl_0.totalEnergy              2976260250                       # Total energy per rank (pJ)
system.mem_ctrl_0.averagePower             714.819990                       # Core power per rank (mW)
system.mem_ctrl_0.totalIdleTime            1986124500                       # Total Idle time Per DRAM Rank
system.mem_ctrl_0.memoryStateTime::IDLE       2329000                       # Time in different power states
system.mem_ctrl_0.memoryStateTime::REF      138586000                       # Time in different power states
system.mem_ctrl_0.memoryStateTime::SREF      15265000                       # Time in different power states
system.mem_ctrl_0.memoryStateTime::PRE_PDN     15144250                       # Time in different power states
system.mem_ctrl_0.memoryStateTime::ACT     2036329250                       # Time in different power states
system.mem_ctrl_0.memoryStateTime::ACT_PDN   1955995500                       # Time in different power states
system.mem_ctrl_1.actEnergy                  12116580                       # Energy for activate commands per rank (pJ)
system.mem_ctrl_1.preEnergy                   6421140                       # Energy for precharge commands per rank (pJ)
system.mem_ctrl_1.readEnergy                108285240                       # Energy for read commands per rank (pJ)
system.mem_ctrl_1.writeEnergy                 2155860                       # Energy for write commands per rank (pJ)
system.mem_ctrl_1.refreshEnergy          263680560.000000                       # Energy for refresh commands per rank (pJ)
system.mem_ctrl_1.actBackEnergy             252176550                       # Energy for active background per rank (pJ)
system.mem_ctrl_1.preBackEnergy              12817440                       # Energy for precharge background per rank (pJ)
system.mem_ctrl_1.actPowerDownEnergy       1011914730                       # Energy for active power-down per rank (pJ)
system.mem_ctrl_1.prePowerDownEnergy        158169120                       # Energy for precharge power-down per rank (pJ)
system.mem_ctrl_1.selfRefreshEnergy         237067725                       # Energy for self refresh per rank (pJ)
system.mem_ctrl_1.totalEnergy              2064834165                       # Total energy per rank (pJ)
system.mem_ctrl_1.averagePower             495.919245                       # Core power per rank (mW)
system.mem_ctrl_1.totalIdleTime            3577268500                       # Total Idle time Per DRAM Rank
system.mem_ctrl_1.memoryStateTime::IDLE      16756250                       # Time in different power states
system.mem_ctrl_1.memoryStateTime::REF      111666000                       # Time in different power states
system.mem_ctrl_1.memoryStateTime::SREF     946178000                       # Time in different power states
system.mem_ctrl_1.memoryStateTime::PRE_PDN    411883500                       # Time in different power states
system.mem_ctrl_1.memoryStateTime::ACT      457958250                       # Time in different power states
system.mem_ctrl_1.memoryStateTime::ACT_PDN   2219207000                       # Time in different power states
system.pwrStateResidencyTicks::UNDEFINED   4163649000                       # Cumulative time (in ticks) in various power states
system.cpu.branchPred.lookups                      81                       # Number of BP lookups
system.cpu.branchPred.condPredicted                81                       # Number of conditional branches predicted
system.cpu.branchPred.condIncorrect                31                       # Number of conditional branches incorrect
system.cpu.branchPred.BTBLookups                   47                       # Number of BTB lookups
system.cpu.branchPred.BTBHits                       0                       # Number of BTB hits
system.cpu.branchPred.BTBCorrect                    0                       # Number of correct BTB predictions (this stat may not work properly.
system.cpu.branchPred.BTBHitPct              0.000000                       # BTB Hit Percentage
system.cpu.branchPred.usedRAS                       0                       # Number of times the RAS was used to get a target.
system.cpu.branchPred.RASInCorrect                  0                       # Number of incorrect RAS predictions.
system.cpu.branchPred.indirectLookups              47                       # Number of indirect predictor lookups.
system.cpu.branchPred.indirectHits                  0                       # Number of indirect target hits.
system.cpu.branchPred.indirectMisses               47                       # Number of indirect misses.
system.cpu.branchPredindirectMispredicted           16                       # Number of mispredicted indirect branches.
system.cpu.dtb.walker.pwrStateResidencyTicks::UNDEFINED   4163649000                       # Cumulative time (in ticks) in various power states
system.cpu.dtb.rdAccesses                       45728                       # TLB accesses on read requests
system.cpu.dtb.wrAccesses                       11553                       # TLB accesses on write requests
system.cpu.dtb.rdMisses                          1694                       # TLB misses on read requests
system.cpu.dtb.wrMisses                            24                       # TLB misses on write requests
system.cpu.apic_clk_domain.clock                16000                       # Clock period in ticks
system.cpu.interrupts.pwrStateResidencyTicks::UNDEFINED   4163649000                       # Cumulative time (in ticks) in various power states
system.cpu.itb.walker.pwrStateResidencyTicks::UNDEFINED   4163649000                       # Cumulative time (in ticks) in various power states
system.cpu.itb.rdAccesses                           0                       # TLB accesses on read requests
system.cpu.itb.wrAccesses                       53630                       # TLB accesses on write requests
system.cpu.itb.rdMisses                             0                       # TLB misses on read requests
system.cpu.itb.wrMisses                            89                       # TLB misses on write requests
system.cpu.workload.numSyscalls                    32                       # Number of system calls
system.cpu.pwrStateResidencyTicks::ON      4163649000                       # Cumulative time (in ticks) in various power states
system.cpu.numCycles                          4163649                       # number of cpu cycles simulated
system.cpu.numWorkItemsStarted                      0                       # number of work items this cpu started
system.cpu.numWorkItemsCompleted                    0                       # number of work items this cpu completed
system.cpu.committedInsts                      144262                       # Number of instructions committed
system.cpu.committedOps                        267722                       # Number of ops (including micro ops) committed
system.cpu.discardedOps                         62283                       # Number of ops (including micro ops) which were discarded before commit
system.cpu.numFetchSuspends                         0                       # Number of times Execute suspended instruction fetching
system.cpu.cpi                              28.861717                       # CPI: cycles per instruction
system.cpu.ipc                               0.034648                       # IPC: instructions per cycle
system.cpu.op_class_0::No_OpClass                1287      0.48%      0.48% # Class of committed instruction
system.cpu.op_class_0::IntAlu                  214338     80.06%     80.54% # Class of committed instruction
system.cpu.op_class_0::IntMult                     31      0.01%     80.55% # Class of committed instruction
system.cpu.op_class_0::IntDiv                    1131      0.42%     80.97% # Class of committed instruction
system.cpu.op_class_0::FloatAdd                  2227      0.83%     81.81% # Class of committed instruction
system.cpu.op_class_0::FloatCmp                     0      0.00%     81.81% # Class of committed instruction
system.cpu.op_class_0::FloatCvt                     0      0.00%     81.81% # Class of committed instruction
system.cpu.op_class_0::FloatMult                    0      0.00%     81.81% # Class of committed instruction
system.cpu.op_class_0::FloatMultAcc                 0      0.00%     81.81% # Class of committed instruction
system.cpu.op_class_0::FloatDiv                     0      0.00%     81.81% # Class of committed instruction
system.cpu.op_class_0::FloatMisc                    0      0.00%     81.81% # Class of committed instruction
system.cpu.op_class_0::FloatSqrt                    0      0.00%     81.81% # Class of committed instruction
system.cpu.op_class_0::SimdAdd                      0      0.00%     81.81% # Class of committed instruction
system.cpu.op_class_0::SimdAddAcc                   0      0.00%     81.81% # Class of committed instruction
system.cpu.op_class_0::SimdAlu                      0      0.00%     81.81% # Class of committed instruction
system.cpu.op_class_0::SimdCmp                      0      0.00%     81.81% # Class of committed instruction
system.cpu.op_class_0::SimdCvt                      0      0.00%     81.81% # Class of committed instruction
system.cpu.op_class_0::SimdMisc                     0      0.00%     81.81% # Class of committed instruction
system.cpu.op_class_0::SimdMult                     0      0.00%     81.81% # Class of committed instruction
system.cpu.op_class_0::SimdMultAcc                  0      0.00%     81.81% # Class of committed instruction
system.cpu.op_class_0::SimdShift                    0      0.00%     81.81% # Class of committed instruction
system.cpu.op_class_0::SimdShiftAcc                 0      0.00%     81.81% # Class of committed instruction
system.cpu.op_class_0::SimdSqrt                     0      0.00%     81.81% # Class of committed instruction
system.cpu.op_class_0::SimdFloatAdd                 0      0.00%     81.81% # Class of committed instruction
system.cpu.op_class_0::SimdFloatAlu                 0      0.00%     81.81% # Class of committed instruction
system.cpu.op_class_0::SimdFloatCmp                 0      0.00%     81.81% # Class of committed instruction
system.cpu.op_class_0::SimdFloatCvt                 0      0.00%     81.81% # Class of committed instruction
system.cpu.op_class_0::SimdFloatDiv                 0      0.00%     81.81% # Class of committed instruction
system.cpu.op_class_0::SimdFloatMisc                0      0.00%     81.81% # Class of committed instruction
system.cpu.op_class_0::SimdFloatMult                0      0.00%     81.81% # Class of committed instruction
system.cpu.op_class_0::SimdFloatMultAcc             0      0.00%     81.81% # Class of committed instruction
system.cpu.op_class_0::SimdFloatSqrt                0      0.00%     81.81% # Class of committed instruction
system.cpu.op_class_0::MemRead                  36545     13.65%     95.46% # Class of committed instruction
system.cpu.op_class_0::MemWrite                 10997      4.11%     99.56% # Class of committed instruction
system.cpu.op_class_0::FloatMemRead               782      0.29%     99.86% # Class of committed instruction
system.cpu.op_class_0::FloatMemWrite              384      0.14%    100.00% # Class of committed instruction
system.cpu.op_class_0::IprAccess                    0      0.00%    100.00% # Class of committed instruction
system.cpu.op_class_0::InstPrefetch                 0      0.00%    100.00% # Class of committed instruction
system.cpu.op_class_0::total                   267722                       # Class of committed instruction
system.cpu.tickCycles                          657865                       # Number of cycles that the object actually ticked
system.cpu.idleCycles                         3505784                       # Total number of cycles that the object has spent stopped
system.membus.snoop_filter.tot_requests             0                       # Total number of requests made to the snoop filter.
system.membus.snoop_filter.hit_single_requests            0                       # Number of requests hitting in the snoop filter with a single holder of the requested data.
system.membus.snoop_filter.hit_multi_requests            0                       # Number of requests hitting in the snoop filter with multiple (>1) holders of the requested data.
system.membus.snoop_filter.tot_snoops               0                       # Total number of snoops made to the snoop filter.
system.membus.snoop_filter.hit_single_snoops            0                       # Number of snoops hitting in the snoop filter with a single holder of the requested data.
system.membus.snoop_filter.hit_multi_snoops            0                       # Number of snoops hitting in the snoop filter with multiple (>1) holders of the requested data.
system.membus.pwrStateResidencyTicks::UNDEFINED   4163649000                       # Cumulative time (in ticks) in various power states
system.membus.trans_dist::ReadReq               97324                       # Transaction distribution
system.membus.trans_dist::ReadResp              97323                       # Transaction distribution
system.membus.trans_dist::WriteReq              11381                       # Transaction distribution
system.membus.trans_dist::WriteResp             11381                       # Transaction distribution
system.membus.pkt_count_system.cpu.fetch1.icache_port::system.mem_ctrl.port       107259                       # Packet count per connected master and slave (bytes)
system.membus.pkt_count_system.cpu.fetch1.icache_port::total       107259                       # Packet count per connected master and slave (bytes)
system.membus.pkt_count_system.cpu.execute.dcache_port::system.mem_ctrl.port       110150                       # Packet count per connected master and slave (bytes)
system.membus.pkt_count_system.cpu.execute.dcache_port::total       110150                       # Packet count per connected master and slave (bytes)
system.membus.pkt_count::total                 217409                       # Packet count per connected master and slave (bytes)
system.membus.pkt_size_system.cpu.fetch1.icache_port::system.mem_ctrl.port      3432256                       # Cumulative packet size per connected master and slave (bytes)
system.membus.pkt_size_system.cpu.fetch1.icache_port::total      3432256                       # Cumulative packet size per connected master and slave (bytes)
system.membus.pkt_size_system.cpu.execute.dcache_port::system.mem_ctrl.port       336256                       # Cumulative packet size per connected master and slave (bytes)
system.membus.pkt_size_system.cpu.execute.dcache_port::total       336256                       # Cumulative packet size per connected master and slave (bytes)
system.membus.pkt_size::total                 3768512                       # Cumulative packet size per connected master and slave (bytes)
system.membus.snoops                                0                       # Total snoops (count)
system.membus.snoopTraffic                          0                       # Total snoop traffic (bytes)
system.membus.snoop_fanout::samples            108705                       # Request fanout histogram
system.membus.snoop_fanout::mean                    0                       # Request fanout histogram
system.membus.snoop_fanout::stdev                   0                       # Request fanout histogram
system.membus.snoop_fanout::underflows              0      0.00%      0.00% # Request fanout histogram
system.membus.snoop_fanout::0                  108705    100.00%    100.00% # Request fanout histogram
system.membus.snoop_fanout::1                       0      0.00%    100.00% # Request fanout histogram
system.membus.snoop_fanout::overflows               0      0.00%    100.00% # Request fanout histogram
system.membus.snoop_fanout::min_value               0                       # Request fanout histogram
system.membus.snoop_fanout::max_value               0                       # Request fanout histogram
system.membus.snoop_fanout::total              108705                       # Request fanout histogram
system.membus.reqLayer2.occupancy           120086000                       # Layer occupancy (ticks)
system.membus.reqLayer2.utilization               2.9                       # Layer utilization (%)
system.membus.respLayer0.occupancy          283748750                       # Layer occupancy (ticks)
system.membus.respLayer0.utilization              6.8                       # Layer utilization (%)
system.membus.respLayer1.occupancy          115007567                       # Layer occupancy (ticks)
system.membus.respLayer1.utilization              2.8                       # Layer utilization (%)

---------- End Simulation Statistics   ----------
