
---------- Begin Simulation Statistics ----------
sim_seconds                                  0.013830                       # Number of seconds simulated
sim_ticks                                 13829613000                       # Number of ticks simulated
final_tick                                13829613000                       # Number of ticks from beginning of simulation (restored from checkpoints and never reset)
sim_freq                                 1000000000000                       # Frequency of simulated ticks
host_inst_rate                                 186096                       # Simulator instruction rate (inst/s)
host_op_rate                                   345354                       # Simulator op (including micro ops) rate (op/s)
host_tick_rate                            17839672697                       # Simulator tick rate (ticks/s)
host_mem_usage                                 666112                       # Number of bytes of host memory used
host_seconds                                     0.78                       # Real time elapsed on the host
sim_insts                                      144262                       # Number of instructions simulated
sim_ops                                        267722                       # Number of ops (including micro ops) simulated
system.clk_domain.voltage_domain.voltage            1                       # Voltage in Volts
system.clk_domain.clock                          1000                       # Clock period in ticks
system.mem_ctrl.pwrStateResidencyTicks::UNDEFINED  13829613000                       # Cumulative time (in ticks) in various power states
system.mem_ctrl.bytes_read::cpu.inst          1522608                       # Number of bytes read from this memory
system.mem_ctrl.bytes_read::cpu.data           204761                       # Number of bytes read from this memory
system.mem_ctrl.bytes_read::total             1727369                       # Number of bytes read from this memory
system.mem_ctrl.bytes_inst_read::cpu.inst      1522608                       # Number of instructions bytes read from this memory
system.mem_ctrl.bytes_inst_read::total        1522608                       # Number of instructions bytes read from this memory
system.mem_ctrl.bytes_written::cpu.data         84855                       # Number of bytes written to this memory
system.mem_ctrl.bytes_written::total            84855                       # Number of bytes written to this memory
system.mem_ctrl.num_reads::cpu.inst            190326                       # Number of read requests responded to by this memory
system.mem_ctrl.num_reads::cpu.data             37336                       # Number of read requests responded to by this memory
system.mem_ctrl.num_reads::total               227662                       # Number of read requests responded to by this memory
system.mem_ctrl.num_writes::cpu.data            11381                       # Number of write requests responded to by this memory
system.mem_ctrl.num_writes::total               11381                       # Number of write requests responded to by this memory
system.mem_ctrl.bw_read::cpu.inst           110097658                       # Total read bandwidth from this memory (bytes/s)
system.mem_ctrl.bw_read::cpu.data            14805982                       # Total read bandwidth from this memory (bytes/s)
system.mem_ctrl.bw_read::total              124903640                       # Total read bandwidth from this memory (bytes/s)
system.mem_ctrl.bw_inst_read::cpu.inst      110097658                       # Instruction read bandwidth from this memory (bytes/s)
system.mem_ctrl.bw_inst_read::total         110097658                       # Instruction read bandwidth from this memory (bytes/s)
system.mem_ctrl.bw_write::cpu.data            6135747                       # Write bandwidth from this memory (bytes/s)
system.mem_ctrl.bw_write::total               6135747                       # Write bandwidth from this memory (bytes/s)
system.mem_ctrl.bw_total::cpu.inst          110097658                       # Total bandwidth to/from this memory (bytes/s)
system.mem_ctrl.bw_total::cpu.data           20941728                       # Total bandwidth to/from this memory (bytes/s)
system.mem_ctrl.bw_total::total             131039386                       # Total bandwidth to/from this memory (bytes/s)
system.mem_ctrl.readReqs                       227663                       # Number of read requests accepted
system.mem_ctrl.writeReqs                       11381                       # Number of write requests accepted
system.mem_ctrl.readBursts                     227663                       # Number of DRAM read bursts, including those serviced by the write queue
system.mem_ctrl.writeBursts                     11381                       # Number of DRAM write bursts, including those merged in the write queue
system.mem_ctrl.bytesReadDRAM                14448128                       # Total number of bytes read from DRAM
system.mem_ctrl.bytesReadWrQ                   122304                       # Total number of bytes read from write queue
system.mem_ctrl.bytesWritten                    53504                       # Total number of bytes written to DRAM
system.mem_ctrl.bytesReadSys                  1727377                       # Total read bytes from the system interface side
system.mem_ctrl.bytesWrittenSys                 84855                       # Total written bytes from the system interface side
system.mem_ctrl.servicedByWrQ                    1911                       # Number of DRAM read bursts serviced by the write queue
system.mem_ctrl.mergedWrBursts                  10514                       # Number of DRAM write bursts merged with an existing one
system.mem_ctrl.neitherReadNorWriteReqs             0                       # Number of requests that are neither read nor write
system.mem_ctrl.perBankRdBursts::0               9407                       # Per bank write bursts
system.mem_ctrl.perBankRdBursts::1               3055                       # Per bank write bursts
system.mem_ctrl.perBankRdBursts::2               3518                       # Per bank write bursts
system.mem_ctrl.perBankRdBursts::3               1591                       # Per bank write bursts
system.mem_ctrl.perBankRdBursts::4               4751                       # Per bank write bursts
system.mem_ctrl.perBankRdBursts::5              76654                       # Per bank write bursts
system.mem_ctrl.perBankRdBursts::6              60810                       # Per bank write bursts
system.mem_ctrl.perBankRdBursts::7              40622                       # Per bank write bursts
system.mem_ctrl.perBankRdBursts::8               2696                       # Per bank write bursts
system.mem_ctrl.perBankRdBursts::9               2719                       # Per bank write bursts
system.mem_ctrl.perBankRdBursts::10              5356                       # Per bank write bursts
system.mem_ctrl.perBankRdBursts::11              1895                       # Per bank write bursts
system.mem_ctrl.perBankRdBursts::12               416                       # Per bank write bursts
system.mem_ctrl.perBankRdBursts::13              2318                       # Per bank write bursts
system.mem_ctrl.perBankRdBursts::14              2422                       # Per bank write bursts
system.mem_ctrl.perBankRdBursts::15              7522                       # Per bank write bursts
system.mem_ctrl.perBankWrBursts::0                  2                       # Per bank write bursts
system.mem_ctrl.perBankWrBursts::1                  3                       # Per bank write bursts
system.mem_ctrl.perBankWrBursts::2                  0                       # Per bank write bursts
system.mem_ctrl.perBankWrBursts::3                  0                       # Per bank write bursts
system.mem_ctrl.perBankWrBursts::4                 25                       # Per bank write bursts
system.mem_ctrl.perBankWrBursts::5                133                       # Per bank write bursts
system.mem_ctrl.perBankWrBursts::6                213                       # Per bank write bursts
system.mem_ctrl.perBankWrBursts::7                 66                       # Per bank write bursts
system.mem_ctrl.perBankWrBursts::8                 33                       # Per bank write bursts
system.mem_ctrl.perBankWrBursts::9                112                       # Per bank write bursts
system.mem_ctrl.perBankWrBursts::10               115                       # Per bank write bursts
system.mem_ctrl.perBankWrBursts::11                77                       # Per bank write bursts
system.mem_ctrl.perBankWrBursts::12                 0                       # Per bank write bursts
system.mem_ctrl.perBankWrBursts::13                 5                       # Per bank write bursts
system.mem_ctrl.perBankWrBursts::14                44                       # Per bank write bursts
system.mem_ctrl.perBankWrBursts::15                 8                       # Per bank write bursts
system.mem_ctrl.numRdRetry                          0                       # Number of times read queue was full causing retry
system.mem_ctrl.numWrRetry                          0                       # Number of times write queue was full causing retry
system.mem_ctrl.totGap                    13829536000                       # Total gap between requests
system.mem_ctrl.readPktSize::0                   7376                       # Read request sizes (log2)
system.mem_ctrl.readPktSize::1                   2600                       # Read request sizes (log2)
system.mem_ctrl.readPktSize::2                   6672                       # Read request sizes (log2)
system.mem_ctrl.readPktSize::3                 211015                       # Read request sizes (log2)
system.mem_ctrl.readPktSize::4                      0                       # Read request sizes (log2)
system.mem_ctrl.readPktSize::5                      0                       # Read request sizes (log2)
system.mem_ctrl.readPktSize::6                      0                       # Read request sizes (log2)
system.mem_ctrl.writePktSize::0                   101                       # Write request sizes (log2)
system.mem_ctrl.writePktSize::1                    21                       # Write request sizes (log2)
system.mem_ctrl.writePktSize::2                  1340                       # Write request sizes (log2)
system.mem_ctrl.writePktSize::3                  9919                       # Write request sizes (log2)
system.mem_ctrl.writePktSize::4                     0                       # Write request sizes (log2)
system.mem_ctrl.writePktSize::5                     0                       # Write request sizes (log2)
system.mem_ctrl.writePktSize::6                     0                       # Write request sizes (log2)
system.mem_ctrl.rdQLenPdf::0                   225743                       # What read queue length does an incoming req see
system.mem_ctrl.rdQLenPdf::1                        9                       # What read queue length does an incoming req see
system.mem_ctrl.rdQLenPdf::2                        0                       # What read queue length does an incoming req see
system.mem_ctrl.rdQLenPdf::3                        0                       # What read queue length does an incoming req see
system.mem_ctrl.rdQLenPdf::4                        0                       # What read queue length does an incoming req see
system.mem_ctrl.rdQLenPdf::5                        0                       # What read queue length does an incoming req see
system.mem_ctrl.rdQLenPdf::6                        0                       # What read queue length does an incoming req see
system.mem_ctrl.rdQLenPdf::7                        0                       # What read queue length does an incoming req see
system.mem_ctrl.rdQLenPdf::8                        0                       # What read queue length does an incoming req see
system.mem_ctrl.rdQLenPdf::9                        0                       # What read queue length does an incoming req see
system.mem_ctrl.rdQLenPdf::10                       0                       # What read queue length does an incoming req see
system.mem_ctrl.rdQLenPdf::11                       0                       # What read queue length does an incoming req see
system.mem_ctrl.rdQLenPdf::12                       0                       # What read queue length does an incoming req see
system.mem_ctrl.rdQLenPdf::13                       0                       # What read queue length does an incoming req see
system.mem_ctrl.rdQLenPdf::14                       0                       # What read queue length does an incoming req see
system.mem_ctrl.rdQLenPdf::15                       0                       # What read queue length does an incoming req see
system.mem_ctrl.rdQLenPdf::16                       0                       # What read queue length does an incoming req see
system.mem_ctrl.rdQLenPdf::17                       0                       # What read queue length does an incoming req see
system.mem_ctrl.rdQLenPdf::18                       0                       # What read queue length does an incoming req see
system.mem_ctrl.rdQLenPdf::19                       0                       # What read queue length does an incoming req see
system.mem_ctrl.rdQLenPdf::20                       0                       # What read queue length does an incoming req see
system.mem_ctrl.rdQLenPdf::21                       0                       # What read queue length does an incoming req see
system.mem_ctrl.rdQLenPdf::22                       0                       # What read queue length does an incoming req see
system.mem_ctrl.rdQLenPdf::23                       0                       # What read queue length does an incoming req see
system.mem_ctrl.rdQLenPdf::24                       0                       # What read queue length does an incoming req see
system.mem_ctrl.rdQLenPdf::25                       0                       # What read queue length does an incoming req see
system.mem_ctrl.rdQLenPdf::26                       0                       # What read queue length does an incoming req see
system.mem_ctrl.rdQLenPdf::27                       0                       # What read queue length does an incoming req see
system.mem_ctrl.rdQLenPdf::28                       0                       # What read queue length does an incoming req see
system.mem_ctrl.rdQLenPdf::29                       0                       # What read queue length does an incoming req see
system.mem_ctrl.rdQLenPdf::30                       0                       # What read queue length does an incoming req see
system.mem_ctrl.rdQLenPdf::31                       0                       # What read queue length does an incoming req see
system.mem_ctrl.wrQLenPdf::0                        1                       # What write queue length does an incoming req see
system.mem_ctrl.wrQLenPdf::1                        1                       # What write queue length does an incoming req see
system.mem_ctrl.wrQLenPdf::2                        1                       # What write queue length does an incoming req see
system.mem_ctrl.wrQLenPdf::3                        1                       # What write queue length does an incoming req see
system.mem_ctrl.wrQLenPdf::4                        1                       # What write queue length does an incoming req see
system.mem_ctrl.wrQLenPdf::5                        1                       # What write queue length does an incoming req see
system.mem_ctrl.wrQLenPdf::6                        1                       # What write queue length does an incoming req see
system.mem_ctrl.wrQLenPdf::7                        1                       # What write queue length does an incoming req see
system.mem_ctrl.wrQLenPdf::8                        1                       # What write queue length does an incoming req see
system.mem_ctrl.wrQLenPdf::9                        1                       # What write queue length does an incoming req see
system.mem_ctrl.wrQLenPdf::10                       1                       # What write queue length does an incoming req see
system.mem_ctrl.wrQLenPdf::11                       1                       # What write queue length does an incoming req see
system.mem_ctrl.wrQLenPdf::12                       1                       # What write queue length does an incoming req see
system.mem_ctrl.wrQLenPdf::13                       1                       # What write queue length does an incoming req see
system.mem_ctrl.wrQLenPdf::14                       1                       # What write queue length does an incoming req see
system.mem_ctrl.wrQLenPdf::15                       3                       # What write queue length does an incoming req see
system.mem_ctrl.wrQLenPdf::16                       3                       # What write queue length does an incoming req see
system.mem_ctrl.wrQLenPdf::17                      53                       # What write queue length does an incoming req see
system.mem_ctrl.wrQLenPdf::18                      53                       # What write queue length does an incoming req see
system.mem_ctrl.wrQLenPdf::19                      53                       # What write queue length does an incoming req see
system.mem_ctrl.wrQLenPdf::20                      53                       # What write queue length does an incoming req see
system.mem_ctrl.wrQLenPdf::21                      53                       # What write queue length does an incoming req see
system.mem_ctrl.wrQLenPdf::22                      53                       # What write queue length does an incoming req see
system.mem_ctrl.wrQLenPdf::23                      53                       # What write queue length does an incoming req see
system.mem_ctrl.wrQLenPdf::24                      53                       # What write queue length does an incoming req see
system.mem_ctrl.wrQLenPdf::25                      53                       # What write queue length does an incoming req see
system.mem_ctrl.wrQLenPdf::26                      53                       # What write queue length does an incoming req see
system.mem_ctrl.wrQLenPdf::27                      53                       # What write queue length does an incoming req see
system.mem_ctrl.wrQLenPdf::28                      53                       # What write queue length does an incoming req see
system.mem_ctrl.wrQLenPdf::29                      53                       # What write queue length does an incoming req see
system.mem_ctrl.wrQLenPdf::30                      53                       # What write queue length does an incoming req see
system.mem_ctrl.wrQLenPdf::31                      52                       # What write queue length does an incoming req see
system.mem_ctrl.wrQLenPdf::32                      52                       # What write queue length does an incoming req see
system.mem_ctrl.wrQLenPdf::33                       0                       # What write queue length does an incoming req see
system.mem_ctrl.wrQLenPdf::34                       0                       # What write queue length does an incoming req see
system.mem_ctrl.wrQLenPdf::35                       0                       # What write queue length does an incoming req see
system.mem_ctrl.wrQLenPdf::36                       0                       # What write queue length does an incoming req see
system.mem_ctrl.wrQLenPdf::37                       0                       # What write queue length does an incoming req see
system.mem_ctrl.wrQLenPdf::38                       0                       # What write queue length does an incoming req see
system.mem_ctrl.wrQLenPdf::39                       0                       # What write queue length does an incoming req see
system.mem_ctrl.wrQLenPdf::40                       0                       # What write queue length does an incoming req see
system.mem_ctrl.wrQLenPdf::41                       0                       # What write queue length does an incoming req see
system.mem_ctrl.wrQLenPdf::42                       0                       # What write queue length does an incoming req see
system.mem_ctrl.wrQLenPdf::43                       0                       # What write queue length does an incoming req see
system.mem_ctrl.wrQLenPdf::44                       0                       # What write queue length does an incoming req see
system.mem_ctrl.wrQLenPdf::45                       0                       # What write queue length does an incoming req see
system.mem_ctrl.wrQLenPdf::46                       0                       # What write queue length does an incoming req see
system.mem_ctrl.wrQLenPdf::47                       0                       # What write queue length does an incoming req see
system.mem_ctrl.wrQLenPdf::48                       0                       # What write queue length does an incoming req see
system.mem_ctrl.wrQLenPdf::49                       0                       # What write queue length does an incoming req see
system.mem_ctrl.wrQLenPdf::50                       0                       # What write queue length does an incoming req see
system.mem_ctrl.wrQLenPdf::51                       0                       # What write queue length does an incoming req see
system.mem_ctrl.wrQLenPdf::52                       0                       # What write queue length does an incoming req see
system.mem_ctrl.wrQLenPdf::53                       0                       # What write queue length does an incoming req see
system.mem_ctrl.wrQLenPdf::54                       0                       # What write queue length does an incoming req see
system.mem_ctrl.wrQLenPdf::55                       0                       # What write queue length does an incoming req see
system.mem_ctrl.wrQLenPdf::56                       0                       # What write queue length does an incoming req see
system.mem_ctrl.wrQLenPdf::57                       0                       # What write queue length does an incoming req see
system.mem_ctrl.wrQLenPdf::58                       0                       # What write queue length does an incoming req see
system.mem_ctrl.wrQLenPdf::59                       0                       # What write queue length does an incoming req see
system.mem_ctrl.wrQLenPdf::60                       0                       # What write queue length does an incoming req see
system.mem_ctrl.wrQLenPdf::61                       0                       # What write queue length does an incoming req see
system.mem_ctrl.wrQLenPdf::62                       0                       # What write queue length does an incoming req see
system.mem_ctrl.wrQLenPdf::63                       0                       # What write queue length does an incoming req see
system.mem_ctrl.bytesPerActivate::samples        30708                       # Bytes accessed per row activation
system.mem_ctrl.bytesPerActivate::mean     472.178195                       # Bytes accessed per row activation
system.mem_ctrl.bytesPerActivate::gmean    267.477132                       # Bytes accessed per row activation
system.mem_ctrl.bytesPerActivate::stdev    412.225125                       # Bytes accessed per row activation
system.mem_ctrl.bytesPerActivate::0-127         10039     32.69%     32.69% # Bytes accessed per row activation
system.mem_ctrl.bytesPerActivate::128-255         4031     13.13%     45.82% # Bytes accessed per row activation
system.mem_ctrl.bytesPerActivate::256-383         2404      7.83%     53.65% # Bytes accessed per row activation
system.mem_ctrl.bytesPerActivate::384-511         1429      4.65%     58.30% # Bytes accessed per row activation
system.mem_ctrl.bytesPerActivate::512-639         1313      4.28%     62.58% # Bytes accessed per row activation
system.mem_ctrl.bytesPerActivate::640-767          854      2.78%     65.36% # Bytes accessed per row activation
system.mem_ctrl.bytesPerActivate::768-895          837      2.73%     68.08% # Bytes accessed per row activation
system.mem_ctrl.bytesPerActivate::896-1023          526      1.71%     69.80% # Bytes accessed per row activation
system.mem_ctrl.bytesPerActivate::1024-1151         9275     30.20%    100.00% # Bytes accessed per row activation
system.mem_ctrl.bytesPerActivate::total         30708                       # Bytes accessed per row activation
system.mem_ctrl.rdPerTurnAround::samples           52                       # Reads before turning the bus around for writes
system.mem_ctrl.rdPerTurnAround::mean     4315.538462                       # Reads before turning the bus around for writes
system.mem_ctrl.rdPerTurnAround::stdev   12957.577758                       # Reads before turning the bus around for writes
system.mem_ctrl.rdPerTurnAround::0-4095            46     88.46%     88.46% # Reads before turning the bus around for writes
system.mem_ctrl.rdPerTurnAround::4096-8191            2      3.85%     92.31% # Reads before turning the bus around for writes
system.mem_ctrl.rdPerTurnAround::12288-16383            1      1.92%     94.23% # Reads before turning the bus around for writes
system.mem_ctrl.rdPerTurnAround::20480-24575            1      1.92%     96.15% # Reads before turning the bus around for writes
system.mem_ctrl.rdPerTurnAround::28672-32767            1      1.92%     98.08% # Reads before turning the bus around for writes
system.mem_ctrl.rdPerTurnAround::86016-90111            1      1.92%    100.00% # Reads before turning the bus around for writes
system.mem_ctrl.rdPerTurnAround::total             52                       # Reads before turning the bus around for writes
system.mem_ctrl.wrPerTurnAround::samples           52                       # Writes before turning the bus around for reads
system.mem_ctrl.wrPerTurnAround::mean       16.076923                       # Writes before turning the bus around for reads
system.mem_ctrl.wrPerTurnAround::gmean      16.072646                       # Writes before turning the bus around for reads
system.mem_ctrl.wrPerTurnAround::stdev       0.388368                       # Writes before turning the bus around for reads
system.mem_ctrl.wrPerTurnAround::16                50     96.15%     96.15% # Writes before turning the bus around for reads
system.mem_ctrl.wrPerTurnAround::18                 2      3.85%    100.00% # Writes before turning the bus around for reads
system.mem_ctrl.wrPerTurnAround::total             52                       # Writes before turning the bus around for reads
system.mem_ctrl.totQLat                    2480187250                       # Total ticks spent queuing
system.mem_ctrl.totMemAccLat               6713037250                       # Total ticks spent from burst creation until serviced by the DRAM
system.mem_ctrl.totBusLat                  1128760000                       # Total ticks spent in databus transfers
system.mem_ctrl.avgQLat                      10986.34                       # Average queueing delay per DRAM burst
system.mem_ctrl.avgBusLat                     5000.00                       # Average bus latency per DRAM burst
system.mem_ctrl.avgMemAccLat                 29736.34                       # Average memory access latency per DRAM burst
system.mem_ctrl.avgRdBW                       1044.72                       # Average DRAM read bandwidth in MiByte/s
system.mem_ctrl.avgWrBW                          3.87                       # Average achieved write bandwidth in MiByte/s
system.mem_ctrl.avgRdBWSys                     124.90                       # Average system read bandwidth in MiByte/s
system.mem_ctrl.avgWrBWSys                       6.14                       # Average system write bandwidth in MiByte/s
system.mem_ctrl.peakBW                       12800.00                       # Theoretical peak bandwidth in MiByte/s
system.mem_ctrl.busUtil                          8.19                       # Data bus utilization in percentage
system.mem_ctrl.busUtilRead                      8.16                       # Data bus utilization in percentage for reads
system.mem_ctrl.busUtilWrite                     0.03                       # Data bus utilization in percentage for writes
system.mem_ctrl.avgRdQLen                        1.00                       # Average read queue length when enqueuing
system.mem_ctrl.avgWrQLen                       28.14                       # Average write queue length when enqueuing
system.mem_ctrl.readRowHits                    195127                       # Number of row buffer hits during reads
system.mem_ctrl.writeRowHits                      746                       # Number of row buffer hits during writes
system.mem_ctrl.readRowHitRate                  86.43                       # Row buffer hit rate for reads
system.mem_ctrl.writeRowHitRate                 86.04                       # Row buffer hit rate for writes
system.mem_ctrl.avgGap                       57853.52                       # Average gap between requests
system.mem_ctrl.pageHitRate                     86.43                       # Row buffer hit rate, read and write combined
system.mem_ctrl_0.actEnergy                 200005680                       # Energy for activate commands per rank (pJ)
system.mem_ctrl_0.preEnergy                 106294155                       # Energy for precharge commands per rank (pJ)
system.mem_ctrl_0.readEnergy               1430913120                       # Energy for read commands per rank (pJ)
system.mem_ctrl_0.writeEnergy                 2307240                       # Energy for write commands per rank (pJ)
system.mem_ctrl_0.refreshEnergy          1089756720.000000                       # Energy for refresh commands per rank (pJ)
system.mem_ctrl_0.actBackEnergy            2792453370                       # Energy for active background per rank (pJ)
system.mem_ctrl_0.preBackEnergy              44718240                       # Energy for precharge background per rank (pJ)
system.mem_ctrl_0.actPowerDownEnergy       3384206280                       # Energy for active power-down per rank (pJ)
system.mem_ctrl_0.prePowerDownEnergy         47248800                       # Energy for precharge power-down per rank (pJ)
system.mem_ctrl_0.selfRefreshEnergy          12411120                       # Energy for self refresh per rank (pJ)
system.mem_ctrl_0.totalEnergy              9110314725                       # Total energy per rank (pJ)
system.mem_ctrl_0.averagePower             658.754098                       # Core power per rank (mW)
system.mem_ctrl_0.totalIdleTime            7588578750                       # Total Idle time Per DRAM Rank
system.mem_ctrl_0.memoryStateTime::IDLE      12642000                       # Time in different power states
system.mem_ctrl_0.memoryStateTime::REF      461070000                       # Time in different power states
system.mem_ctrl_0.memoryStateTime::SREF      44810000                       # Time in different power states
system.mem_ctrl_0.memoryStateTime::PRE_PDN    123059750                       # Time in different power states
system.mem_ctrl_0.memoryStateTime::ACT     5766707000                       # Time in different power states
system.mem_ctrl_0.memoryStateTime::ACT_PDN   7421324250                       # Time in different power states
system.mem_ctrl_1.actEnergy                  19299420                       # Energy for activate commands per rank (pJ)
system.mem_ctrl_1.preEnergy                  10242705                       # Energy for precharge commands per rank (pJ)
system.mem_ctrl_1.readEnergy                180949020                       # Energy for read commands per rank (pJ)
system.mem_ctrl_1.writeEnergy                 2056680                       # Energy for write commands per rank (pJ)
system.mem_ctrl_1.refreshEnergy          852505680.000000                       # Energy for refresh commands per rank (pJ)
system.mem_ctrl_1.actBackEnergy             486290370                       # Energy for active background per rank (pJ)
system.mem_ctrl_1.preBackEnergy              35467680                       # Energy for precharge background per rank (pJ)
system.mem_ctrl_1.actPowerDownEnergy       3100000290                       # Energy for active power-down per rank (pJ)
system.mem_ctrl_1.prePowerDownEnergy        693091200                       # Energy for precharge power-down per rank (pJ)
system.mem_ctrl_1.selfRefreshEnergy        1055846775                       # Energy for self refresh per rank (pJ)
system.mem_ctrl_1.totalEnergy              6435975420                       # Total energy per rank (pJ)
system.mem_ctrl_1.averagePower             465.376368                       # Core power per rank (mW)
system.mem_ctrl_1.totalIdleTime           12670679500                       # Total Idle time Per DRAM Rank
system.mem_ctrl_1.memoryStateTime::IDLE      53662250                       # Time in different power states
system.mem_ctrl_1.memoryStateTime::REF      361490000                       # Time in different power states
system.mem_ctrl_1.memoryStateTime::SREF    4067157250                       # Time in different power states
system.mem_ctrl_1.memoryStateTime::PRE_PDN   1804971250                       # Time in different power states
system.mem_ctrl_1.memoryStateTime::ACT      743781250                       # Time in different power states
system.mem_ctrl_1.memoryStateTime::ACT_PDN   6798551000                       # Time in different power states
system.pwrStateResidencyTicks::UNDEFINED  13829613000                       # Cumulative time (in ticks) in various power states
system.cpu.dtb.walker.pwrStateResidencyTicks::UNDEFINED  13829613000                       # Cumulative time (in ticks) in various power states
system.cpu.dtb.rdAccesses                       37336                       # TLB accesses on read requests
system.cpu.dtb.wrAccesses                       11381                       # TLB accesses on write requests
system.cpu.dtb.rdMisses                            70                       # TLB misses on read requests
system.cpu.dtb.wrMisses                            17                       # TLB misses on write requests
system.cpu.apic_clk_domain.clock                16000                       # Clock period in ticks
system.cpu.interrupts.pwrStateResidencyTicks::UNDEFINED  13829613000                       # Cumulative time (in ticks) in various power states
system.cpu.itb.walker.pwrStateResidencyTicks::UNDEFINED  13829613000                       # Cumulative time (in ticks) in various power states
system.cpu.itb.rdAccesses                           0                       # TLB accesses on read requests
system.cpu.itb.wrAccesses                      190327                       # TLB accesses on write requests
system.cpu.itb.rdMisses                             0                       # TLB misses on read requests
system.cpu.itb.wrMisses                            88                       # TLB misses on write requests
system.cpu.workload.numSyscalls                    32                       # Number of system calls
system.cpu.pwrStateResidencyTicks::ON     13829613000                       # Cumulative time (in ticks) in various power states
system.cpu.numCycles                         13829613                       # number of cpu cycles simulated
system.cpu.numWorkItemsStarted                      0                       # number of work items this cpu started
system.cpu.numWorkItemsCompleted                    0                       # number of work items this cpu completed
system.cpu.committedInsts                      144262                       # Number of instructions committed
system.cpu.committedOps                        267722                       # Number of ops (including micro ops) committed
system.cpu.num_int_alu_accesses                264431                       # Number of integer alu accesses
system.cpu.num_fp_alu_accesses                   3447                       # Number of float alu accesses
system.cpu.num_vec_alu_accesses                     0                       # Number of vector alu accesses
system.cpu.num_func_calls                        1354                       # number of times a function call or return occured
system.cpu.num_conditional_control_insts        27456                       # number of instructions that are conditional controls
system.cpu.num_int_insts                       264431                       # number of integer instructions
system.cpu.num_fp_insts                          3447                       # number of float instructions
system.cpu.num_vec_insts                            0                       # number of vector instructions
system.cpu.num_int_register_reads              514328                       # number of times the integer registers were read
system.cpu.num_int_register_writes             224688                       # number of times the integer registers were written
system.cpu.num_fp_register_reads                 5525                       # number of times the floating registers were read
system.cpu.num_fp_register_writes                2660                       # number of times the floating registers were written
system.cpu.num_vec_register_reads                   0                       # number of times the vector registers were read
system.cpu.num_vec_register_writes                  0                       # number of times the vector registers were written
system.cpu.num_cc_register_reads               171629                       # number of times the CC registers were read
system.cpu.num_cc_register_writes              109783                       # number of times the CC registers were written
system.cpu.num_mem_refs                         48708                       # number of memory refs
system.cpu.num_load_insts                       37327                       # Number of load instructions
system.cpu.num_store_insts                      11381                       # Number of store instructions
system.cpu.num_idle_cycles                          0                       # Number of idle cycles
system.cpu.num_busy_cycles                   13829613                       # Number of busy cycles
system.cpu.not_idle_fraction                        1                       # Percentage of non-idle cycles
system.cpu.idle_fraction                            0                       # Percentage of idle cycles
system.cpu.Branches                             30597                       # Number of branches fetched
system.cpu.op_class::No_OpClass                  1287      0.48%      0.48% # Class of executed instruction
system.cpu.op_class::IntAlu                    214338     80.06%     80.54% # Class of executed instruction
system.cpu.op_class::IntMult                       31      0.01%     80.55% # Class of executed instruction
system.cpu.op_class::IntDiv                      1131      0.42%     80.97% # Class of executed instruction
system.cpu.op_class::FloatAdd                    2227      0.83%     81.81% # Class of executed instruction
system.cpu.op_class::FloatCmp                       0      0.00%     81.81% # Class of executed instruction
system.cpu.op_class::FloatCvt                       0      0.00%     81.81% # Class of executed instruction
system.cpu.op_class::FloatMult                      0      0.00%     81.81% # Class of executed instruction
system.cpu.op_class::FloatMultAcc                   0      0.00%     81.81% # Class of executed instruction
system.cpu.op_class::FloatDiv                       0      0.00%     81.81% # Class of executed instruction
system.cpu.op_class::FloatMisc                      0      0.00%     81.81% # Class of executed instruction
system.cpu.op_class::FloatSqrt                      0      0.00%     81.81% # Class of executed instruction
system.cpu.op_class::SimdAdd                        0      0.00%     81.81% # Class of executed instruction
system.cpu.op_class::SimdAddAcc                     0      0.00%     81.81% # Class of executed instruction
system.cpu.op_class::SimdAlu                        0      0.00%     81.81% # Class of executed instruction
system.cpu.op_class::SimdCmp                        0      0.00%     81.81% # Class of executed instruction
system.cpu.op_class::SimdCvt                        0      0.00%     81.81% # Class of executed instruction
system.cpu.op_class::SimdMisc                       0      0.00%     81.81% # Class of executed instruction
system.cpu.op_class::SimdMult                       0      0.00%     81.81% # Class of executed instruction
system.cpu.op_class::SimdMultAcc                    0      0.00%     81.81% # Class of executed instruction
system.cpu.op_class::SimdShift                      0      0.00%     81.81% # Class of executed instruction
system.cpu.op_class::SimdShiftAcc                   0      0.00%     81.81% # Class of executed instruction
system.cpu.op_class::SimdSqrt                       0      0.00%     81.81% # Class of executed instruction
system.cpu.op_class::SimdFloatAdd                   0      0.00%     81.81% # Class of executed instruction
system.cpu.op_class::SimdFloatAlu                   0      0.00%     81.81% # Class of executed instruction
system.cpu.op_class::SimdFloatCmp                   0      0.00%     81.81% # Class of executed instruction
system.cpu.op_class::SimdFloatCvt                   0      0.00%     81.81% # Class of executed instruction
system.cpu.op_class::SimdFloatDiv                   0      0.00%     81.81% # Class of executed instruction
system.cpu.op_class::SimdFloatMisc                  0      0.00%     81.81% # Class of executed instruction
system.cpu.op_class::SimdFloatMult                  0      0.00%     81.81% # Class of executed instruction
system.cpu.op_class::SimdFloatMultAcc               0      0.00%     81.81% # Class of executed instruction
system.cpu.op_class::SimdFloatSqrt                  0      0.00%     81.81% # Class of executed instruction
system.cpu.op_class::MemRead                    36545     13.65%     95.46% # Class of executed instruction
system.cpu.op_class::MemWrite                   10997      4.11%     99.56% # Class of executed instruction
system.cpu.op_class::FloatMemRead                 782      0.29%     99.86% # Class of executed instruction
system.cpu.op_class::FloatMemWrite                384      0.14%    100.00% # Class of executed instruction
system.cpu.op_class::IprAccess                      0      0.00%    100.00% # Class of executed instruction
system.cpu.op_class::InstPrefetch                   0      0.00%    100.00% # Class of executed instruction
system.cpu.op_class::total                     267722                       # Class of executed instruction
system.membus.snoop_filter.tot_requests             0                       # Total number of requests made to the snoop filter.
system.membus.snoop_filter.hit_single_requests            0                       # Number of requests hitting in the snoop filter with a single holder of the requested data.
system.membus.snoop_filter.hit_multi_requests            0                       # Number of requests hitting in the snoop filter with multiple (>1) holders of the requested data.
system.membus.snoop_filter.tot_snoops               0                       # Total number of snoops made to the snoop filter.
system.membus.snoop_filter.hit_single_snoops            0                       # Number of snoops hitting in the snoop filter with a single holder of the requested data.
system.membus.snoop_filter.hit_multi_snoops            0                       # Number of snoops hitting in the snoop filter with multiple (>1) holders of the requested data.
system.membus.pwrStateResidencyTicks::UNDEFINED  13829613000                       # Cumulative time (in ticks) in various power states
system.membus.trans_dist::ReadReq              227663                       # Transaction distribution
system.membus.trans_dist::ReadResp             227662                       # Transaction distribution
system.membus.trans_dist::WriteReq              11381                       # Transaction distribution
system.membus.trans_dist::WriteResp             11381                       # Transaction distribution
system.membus.pkt_count_system.cpu.icache_port::system.mem_ctrl.port       380653                       # Packet count per connected master and slave (bytes)
system.membus.pkt_count_system.cpu.icache_port::total       380653                       # Packet count per connected master and slave (bytes)
system.membus.pkt_count_system.cpu.dcache_port::system.mem_ctrl.port        97434                       # Packet count per connected master and slave (bytes)
system.membus.pkt_count_system.cpu.dcache_port::total        97434                       # Packet count per connected master and slave (bytes)
system.membus.pkt_count::total                 478087                       # Packet count per connected master and slave (bytes)
system.membus.pkt_size_system.cpu.icache_port::system.mem_ctrl.port      1522608                       # Cumulative packet size per connected master and slave (bytes)
system.membus.pkt_size_system.cpu.icache_port::total      1522608                       # Cumulative packet size per connected master and slave (bytes)
system.membus.pkt_size_system.cpu.dcache_port::system.mem_ctrl.port       289616                       # Cumulative packet size per connected master and slave (bytes)
system.membus.pkt_size_system.cpu.dcache_port::total       289616                       # Cumulative packet size per connected master and slave (bytes)
system.membus.pkt_size::total                 1812224                       # Cumulative packet size per connected master and slave (bytes)
system.membus.snoops                                0                       # Total snoops (count)
system.membus.snoopTraffic                          0                       # Total snoop traffic (bytes)
system.membus.snoop_fanout::samples            239044                       # Request fanout histogram
system.membus.snoop_fanout::mean                    0                       # Request fanout histogram
system.membus.snoop_fanout::stdev                   0                       # Request fanout histogram
system.membus.snoop_fanout::underflows              0      0.00%      0.00% # Request fanout histogram
system.membus.snoop_fanout::0                  239044    100.00%    100.00% # Request fanout histogram
system.membus.snoop_fanout::1                       0      0.00%    100.00% # Request fanout histogram
system.membus.snoop_fanout::overflows               0      0.00%    100.00% # Request fanout histogram
system.membus.snoop_fanout::min_value               0                       # Request fanout histogram
system.membus.snoop_fanout::max_value               0                       # Request fanout histogram
system.membus.snoop_fanout::total              239044                       # Request fanout histogram
system.membus.reqLayer2.occupancy           250425000                       # Layer occupancy (ticks)
system.membus.reqLayer2.utilization               1.8                       # Layer utilization (%)
system.membus.respLayer0.occupancy          434111000                       # Layer occupancy (ticks)
system.membus.respLayer0.utilization              3.1                       # Layer utilization (%)
system.membus.respLayer1.occupancy           99923500                       # Layer occupancy (ticks)
system.membus.respLayer1.utilization              0.7                       # Layer utilization (%)

---------- End Simulation Statistics   ----------
