
---------- Begin Simulation Statistics ----------
sim_seconds                                  0.017656                       # Number of seconds simulated
sim_ticks                                 17655936500                       # Number of ticks simulated
final_tick                                17655936500                       # Number of ticks from beginning of simulation (restored from checkpoints and never reset)
sim_freq                                 1000000000000                       # Frequency of simulated ticks
host_inst_rate                                  49896                       # Simulator instruction rate (inst/s)
host_op_rate                                    87863                       # Simulator op (including micro ops) rate (op/s)
host_tick_rate                             1552703943                       # Simulator tick rate (ticks/s)
host_mem_usage                                 668420                       # Number of bytes of host memory used
host_seconds                                    11.37                       # Real time elapsed on the host
sim_insts                                      567373                       # Number of instructions simulated
sim_ops                                        999102                       # Number of ops (including micro ops) simulated
system.clk_domain.voltage_domain.voltage            1                       # Voltage in Volts
system.clk_domain.clock                           500                       # Clock period in ticks
system.mem_ctrl.pwrStateResidencyTicks::UNDEFINED  17655936500                       # Cumulative time (in ticks) in various power states
system.mem_ctrl.bytes_read::cpu.inst         13874944                       # Number of bytes read from this memory
system.mem_ctrl.bytes_read::cpu.data          1349407                       # Number of bytes read from this memory
system.mem_ctrl.bytes_read::total            15224351                       # Number of bytes read from this memory
system.mem_ctrl.bytes_inst_read::cpu.inst     13874944                       # Number of instructions bytes read from this memory
system.mem_ctrl.bytes_inst_read::total       13874944                       # Number of instructions bytes read from this memory
system.mem_ctrl.bytes_written::cpu.data        343939                       # Number of bytes written to this memory
system.mem_ctrl.bytes_written::total           343939                       # Number of bytes written to this memory
system.mem_ctrl.num_reads::cpu.inst            216796                       # Number of read requests responded to by this memory
system.mem_ctrl.num_reads::cpu.data            281375                       # Number of read requests responded to by this memory
system.mem_ctrl.num_reads::total               498171                       # Number of read requests responded to by this memory
system.mem_ctrl.num_writes::cpu.data            76154                       # Number of write requests responded to by this memory
system.mem_ctrl.num_writes::total               76154                       # Number of write requests responded to by this memory
system.mem_ctrl.bw_read::cpu.inst           785851490                       # Total read bandwidth from this memory (bytes/s)
system.mem_ctrl.bw_read::cpu.data            76427948                       # Total read bandwidth from this memory (bytes/s)
system.mem_ctrl.bw_read::total              862279438                       # Total read bandwidth from this memory (bytes/s)
system.mem_ctrl.bw_inst_read::cpu.inst      785851490                       # Instruction read bandwidth from this memory (bytes/s)
system.mem_ctrl.bw_inst_read::total         785851490                       # Instruction read bandwidth from this memory (bytes/s)
system.mem_ctrl.bw_write::cpu.data           19480077                       # Write bandwidth from this memory (bytes/s)
system.mem_ctrl.bw_write::total              19480077                       # Write bandwidth from this memory (bytes/s)
system.mem_ctrl.bw_total::cpu.inst          785851490                       # Total bandwidth to/from this memory (bytes/s)
system.mem_ctrl.bw_total::cpu.data           95908025                       # Total bandwidth to/from this memory (bytes/s)
system.mem_ctrl.bw_total::total             881759515                       # Total bandwidth to/from this memory (bytes/s)
system.mem_ctrl.readReqs                       498172                       # Number of read requests accepted
system.mem_ctrl.writeReqs                       76154                       # Number of write requests accepted
system.mem_ctrl.readBursts                     714980                       # Number of DRAM read bursts, including those serviced by the write queue
system.mem_ctrl.writeBursts                     76154                       # Number of DRAM write bursts, including those merged in the write queue
system.mem_ctrl.bytesReadDRAM                20229152                       # Total number of bytes read from DRAM
system.mem_ctrl.bytesReadWrQ                  2650208                       # Total number of bytes read from write queue
system.mem_ctrl.bytesWritten                   442880                       # Total number of bytes written to DRAM
system.mem_ctrl.bytesReadSys                 15224415                       # Total read bytes from the system interface side
system.mem_ctrl.bytesWrittenSys                343939                       # Total written bytes from the system interface side
system.mem_ctrl.servicedByWrQ                   82819                       # Number of DRAM read bursts serviced by the write queue
system.mem_ctrl.mergedWrBursts                  62284                       # Number of DRAM write bursts merged with an existing one
system.mem_ctrl.neitherReadNorWriteReqs             0                       # Number of requests that are neither read nor write
system.mem_ctrl.perBankRdBursts::0              95675                       # Per bank write bursts
system.mem_ctrl.perBankRdBursts::1             336771                       # Per bank write bursts
system.mem_ctrl.perBankRdBursts::2              12153                       # Per bank write bursts
system.mem_ctrl.perBankRdBursts::3             126000                       # Per bank write bursts
system.mem_ctrl.perBankRdBursts::4               8944                       # Per bank write bursts
system.mem_ctrl.perBankRdBursts::5              27218                       # Per bank write bursts
system.mem_ctrl.perBankRdBursts::6              18111                       # Per bank write bursts
system.mem_ctrl.perBankRdBursts::7               7289                       # Per bank write bursts
system.mem_ctrl.perBankWrBursts::0               1511                       # Per bank write bursts
system.mem_ctrl.perBankWrBursts::1               1585                       # Per bank write bursts
system.mem_ctrl.perBankWrBursts::2               1974                       # Per bank write bursts
system.mem_ctrl.perBankWrBursts::3               2509                       # Per bank write bursts
system.mem_ctrl.perBankWrBursts::4               1605                       # Per bank write bursts
system.mem_ctrl.perBankWrBursts::5               1639                       # Per bank write bursts
system.mem_ctrl.perBankWrBursts::6               1645                       # Per bank write bursts
system.mem_ctrl.perBankWrBursts::7               1372                       # Per bank write bursts
system.mem_ctrl.numRdRetry                          0                       # Number of times read queue was full causing retry
system.mem_ctrl.numWrRetry                          0                       # Number of times write queue was full causing retry
system.mem_ctrl.totGap                    17655933000                       # Total gap between requests
system.mem_ctrl.readPktSize::0                   7596                       # Read request sizes (log2)
system.mem_ctrl.readPktSize::1                   2624                       # Read request sizes (log2)
system.mem_ctrl.readPktSize::2                 208183                       # Read request sizes (log2)
system.mem_ctrl.readPktSize::3                  62983                       # Read request sizes (log2)
system.mem_ctrl.readPktSize::4                      0                       # Read request sizes (log2)
system.mem_ctrl.readPktSize::5                 433594                       # Read request sizes (log2)
system.mem_ctrl.writePktSize::0                   105                       # Write request sizes (log2)
system.mem_ctrl.writePktSize::1                    19                       # Write request sizes (log2)
system.mem_ctrl.writePktSize::2                 66111                       # Write request sizes (log2)
system.mem_ctrl.writePktSize::3                  9919                       # Write request sizes (log2)
system.mem_ctrl.writePktSize::4                     0                       # Write request sizes (log2)
system.mem_ctrl.writePktSize::5                     0                       # Write request sizes (log2)
system.mem_ctrl.rdQLenPdf::0                   235082                       # What read queue length does an incoming req see
system.mem_ctrl.rdQLenPdf::1                   218407                       # What read queue length does an incoming req see
system.mem_ctrl.rdQLenPdf::2                   174868                       # What read queue length does an incoming req see
system.mem_ctrl.rdQLenPdf::3                     3798                       # What read queue length does an incoming req see
system.mem_ctrl.rdQLenPdf::4                        6                       # What read queue length does an incoming req see
system.mem_ctrl.rdQLenPdf::5                        0                       # What read queue length does an incoming req see
system.mem_ctrl.rdQLenPdf::6                        0                       # What read queue length does an incoming req see
system.mem_ctrl.rdQLenPdf::7                        0                       # What read queue length does an incoming req see
system.mem_ctrl.rdQLenPdf::8                        0                       # What read queue length does an incoming req see
system.mem_ctrl.rdQLenPdf::9                        0                       # What read queue length does an incoming req see
system.mem_ctrl.rdQLenPdf::10                       0                       # What read queue length does an incoming req see
system.mem_ctrl.rdQLenPdf::11                       0                       # What read queue length does an incoming req see
system.mem_ctrl.rdQLenPdf::12                       0                       # What read queue length does an incoming req see
system.mem_ctrl.rdQLenPdf::13                       0                       # What read queue length does an incoming req see
system.mem_ctrl.rdQLenPdf::14                       0                       # What read queue length does an incoming req see
system.mem_ctrl.rdQLenPdf::15                       0                       # What read queue length does an incoming req see
system.mem_ctrl.rdQLenPdf::16                       0                       # What read queue length does an incoming req see
system.mem_ctrl.rdQLenPdf::17                       0                       # What read queue length does an incoming req see
system.mem_ctrl.rdQLenPdf::18                       0                       # What read queue length does an incoming req see
system.mem_ctrl.rdQLenPdf::19                       0                       # What read queue length does an incoming req see
system.mem_ctrl.rdQLenPdf::20                       0                       # What read queue length does an incoming req see
system.mem_ctrl.rdQLenPdf::21                       0                       # What read queue length does an incoming req see
system.mem_ctrl.rdQLenPdf::22                       0                       # What read queue length does an incoming req see
system.mem_ctrl.rdQLenPdf::23                       0                       # What read queue length does an incoming req see
system.mem_ctrl.rdQLenPdf::24                       0                       # What read queue length does an incoming req see
system.mem_ctrl.rdQLenPdf::25                       0                       # What read queue length does an incoming req see
system.mem_ctrl.rdQLenPdf::26                       0                       # What read queue length does an incoming req see
system.mem_ctrl.rdQLenPdf::27                       0                       # What read queue length does an incoming req see
system.mem_ctrl.rdQLenPdf::28                       0                       # What read queue length does an incoming req see
system.mem_ctrl.rdQLenPdf::29                       0                       # What read queue length does an incoming req see
system.mem_ctrl.rdQLenPdf::30                       0                       # What read queue length does an incoming req see
system.mem_ctrl.rdQLenPdf::31                       0                       # What read queue length does an incoming req see
system.mem_ctrl.wrQLenPdf::0                        1                       # What write queue length does an incoming req see
system.mem_ctrl.wrQLenPdf::1                        1                       # What write queue length does an incoming req see
system.mem_ctrl.wrQLenPdf::2                        1                       # What write queue length does an incoming req see
system.mem_ctrl.wrQLenPdf::3                        1                       # What write queue length does an incoming req see
system.mem_ctrl.wrQLenPdf::4                        1                       # What write queue length does an incoming req see
system.mem_ctrl.wrQLenPdf::5                        1                       # What write queue length does an incoming req see
system.mem_ctrl.wrQLenPdf::6                        1                       # What write queue length does an incoming req see
system.mem_ctrl.wrQLenPdf::7                        1                       # What write queue length does an incoming req see
system.mem_ctrl.wrQLenPdf::8                        1                       # What write queue length does an incoming req see
system.mem_ctrl.wrQLenPdf::9                        1                       # What write queue length does an incoming req see
system.mem_ctrl.wrQLenPdf::10                       1                       # What write queue length does an incoming req see
system.mem_ctrl.wrQLenPdf::11                       1                       # What write queue length does an incoming req see
system.mem_ctrl.wrQLenPdf::12                       1                       # What write queue length does an incoming req see
system.mem_ctrl.wrQLenPdf::13                       1                       # What write queue length does an incoming req see
system.mem_ctrl.wrQLenPdf::14                       1                       # What write queue length does an incoming req see
system.mem_ctrl.wrQLenPdf::15                       1                       # What write queue length does an incoming req see
system.mem_ctrl.wrQLenPdf::16                       1                       # What write queue length does an incoming req see
system.mem_ctrl.wrQLenPdf::17                     848                       # What write queue length does an incoming req see
system.mem_ctrl.wrQLenPdf::18                     859                       # What write queue length does an incoming req see
system.mem_ctrl.wrQLenPdf::19                     864                       # What write queue length does an incoming req see
system.mem_ctrl.wrQLenPdf::20                     867                       # What write queue length does an incoming req see
system.mem_ctrl.wrQLenPdf::21                     866                       # What write queue length does an incoming req see
system.mem_ctrl.wrQLenPdf::22                     867                       # What write queue length does an incoming req see
system.mem_ctrl.wrQLenPdf::23                     868                       # What write queue length does an incoming req see
system.mem_ctrl.wrQLenPdf::24                     867                       # What write queue length does an incoming req see
system.mem_ctrl.wrQLenPdf::25                     868                       # What write queue length does an incoming req see
system.mem_ctrl.wrQLenPdf::26                     868                       # What write queue length does an incoming req see
system.mem_ctrl.wrQLenPdf::27                     872                       # What write queue length does an incoming req see
system.mem_ctrl.wrQLenPdf::28                     867                       # What write queue length does an incoming req see
system.mem_ctrl.wrQLenPdf::29                     869                       # What write queue length does an incoming req see
system.mem_ctrl.wrQLenPdf::30                     868                       # What write queue length does an incoming req see
system.mem_ctrl.wrQLenPdf::31                     870                       # What write queue length does an incoming req see
system.mem_ctrl.wrQLenPdf::32                     865                       # What write queue length does an incoming req see
system.mem_ctrl.wrQLenPdf::33                       0                       # What write queue length does an incoming req see
system.mem_ctrl.wrQLenPdf::34                       0                       # What write queue length does an incoming req see
system.mem_ctrl.wrQLenPdf::35                       0                       # What write queue length does an incoming req see
system.mem_ctrl.wrQLenPdf::36                       0                       # What write queue length does an incoming req see
system.mem_ctrl.wrQLenPdf::37                       0                       # What write queue length does an incoming req see
system.mem_ctrl.wrQLenPdf::38                       0                       # What write queue length does an incoming req see
system.mem_ctrl.wrQLenPdf::39                       0                       # What write queue length does an incoming req see
system.mem_ctrl.wrQLenPdf::40                       0                       # What write queue length does an incoming req see
system.mem_ctrl.wrQLenPdf::41                       0                       # What write queue length does an incoming req see
system.mem_ctrl.wrQLenPdf::42                       0                       # What write queue length does an incoming req see
system.mem_ctrl.wrQLenPdf::43                       0                       # What write queue length does an incoming req see
system.mem_ctrl.wrQLenPdf::44                       0                       # What write queue length does an incoming req see
system.mem_ctrl.wrQLenPdf::45                       0                       # What write queue length does an incoming req see
system.mem_ctrl.wrQLenPdf::46                       0                       # What write queue length does an incoming req see
system.mem_ctrl.wrQLenPdf::47                       0                       # What write queue length does an incoming req see
system.mem_ctrl.wrQLenPdf::48                       0                       # What write queue length does an incoming req see
system.mem_ctrl.wrQLenPdf::49                       0                       # What write queue length does an incoming req see
system.mem_ctrl.wrQLenPdf::50                       0                       # What write queue length does an incoming req see
system.mem_ctrl.wrQLenPdf::51                       0                       # What write queue length does an incoming req see
system.mem_ctrl.wrQLenPdf::52                       0                       # What write queue length does an incoming req see
system.mem_ctrl.wrQLenPdf::53                       0                       # What write queue length does an incoming req see
system.mem_ctrl.wrQLenPdf::54                       0                       # What write queue length does an incoming req see
system.mem_ctrl.wrQLenPdf::55                       0                       # What write queue length does an incoming req see
system.mem_ctrl.wrQLenPdf::56                       0                       # What write queue length does an incoming req see
system.mem_ctrl.wrQLenPdf::57                       0                       # What write queue length does an incoming req see
system.mem_ctrl.wrQLenPdf::58                       0                       # What write queue length does an incoming req see
system.mem_ctrl.wrQLenPdf::59                       0                       # What write queue length does an incoming req see
system.mem_ctrl.wrQLenPdf::60                       0                       # What write queue length does an incoming req see
system.mem_ctrl.wrQLenPdf::61                       0                       # What write queue length does an incoming req see
system.mem_ctrl.wrQLenPdf::62                       0                       # What write queue length does an incoming req see
system.mem_ctrl.wrQLenPdf::63                       0                       # What write queue length does an incoming req see
system.mem_ctrl.bytesPerActivate::samples        68811                       # Bytes accessed per row activation
system.mem_ctrl.bytesPerActivate::mean     300.404528                       # Bytes accessed per row activation
system.mem_ctrl.bytesPerActivate::gmean    194.862980                       # Bytes accessed per row activation
system.mem_ctrl.bytesPerActivate::stdev    204.328175                       # Bytes accessed per row activation
system.mem_ctrl.bytesPerActivate::0-63          13911     20.22%     20.22% # Bytes accessed per row activation
system.mem_ctrl.bytesPerActivate::64-127         6342      9.22%     29.43% # Bytes accessed per row activation
system.mem_ctrl.bytesPerActivate::128-191         4950      7.19%     36.63% # Bytes accessed per row activation
system.mem_ctrl.bytesPerActivate::192-255         6004      8.73%     45.35% # Bytes accessed per row activation
system.mem_ctrl.bytesPerActivate::256-319         3115      4.53%     49.88% # Bytes accessed per row activation
system.mem_ctrl.bytesPerActivate::320-383         1313      1.91%     51.79% # Bytes accessed per row activation
system.mem_ctrl.bytesPerActivate::384-447         2346      3.41%     55.20% # Bytes accessed per row activation
system.mem_ctrl.bytesPerActivate::448-511         2217      3.22%     58.42% # Bytes accessed per row activation
system.mem_ctrl.bytesPerActivate::512-575        28613     41.58%    100.00% # Bytes accessed per row activation
system.mem_ctrl.bytesPerActivate::total         68811                       # Bytes accessed per row activation
system.mem_ctrl.rdPerTurnAround::samples          865                       # Reads before turning the bus around for writes
system.mem_ctrl.rdPerTurnAround::mean      730.500578                       # Reads before turning the bus around for writes
system.mem_ctrl.rdPerTurnAround::gmean     316.540571                       # Reads before turning the bus around for writes
system.mem_ctrl.rdPerTurnAround::stdev    7298.160620                       # Reads before turning the bus around for writes
system.mem_ctrl.rdPerTurnAround::0-8191           860     99.42%     99.42% # Reads before turning the bus around for writes
system.mem_ctrl.rdPerTurnAround::8192-16383            3      0.35%     99.77% # Reads before turning the bus around for writes
system.mem_ctrl.rdPerTurnAround::65536-73727            1      0.12%     99.88% # Reads before turning the bus around for writes
system.mem_ctrl.rdPerTurnAround::196608-204799            1      0.12%    100.00% # Reads before turning the bus around for writes
system.mem_ctrl.rdPerTurnAround::total            865                       # Reads before turning the bus around for writes
system.mem_ctrl.wrPerTurnAround::samples          865                       # Writes before turning the bus around for reads
system.mem_ctrl.wrPerTurnAround::mean              16                       # Writes before turning the bus around for reads
system.mem_ctrl.wrPerTurnAround::gmean      16.000000                       # Writes before turning the bus around for reads
system.mem_ctrl.wrPerTurnAround::16               865    100.00%    100.00% # Writes before turning the bus around for reads
system.mem_ctrl.wrPerTurnAround::total            865                       # Writes before turning the bus around for reads
system.mem_ctrl.totQLat                   10742313840                       # Total ticks spent queuing
system.mem_ctrl.totMemAccLat              24965936340                       # Total ticks spent from burst creation until serviced by the DRAM
system.mem_ctrl.totBusLat                  4741207500                       # Total ticks spent in databus transfers
system.mem_ctrl.avgQLat                      16993.00                       # Average queueing delay per DRAM burst
system.mem_ctrl.avgBusLat                     7500.00                       # Average bus latency per DRAM burst
system.mem_ctrl.avgMemAccLat                 39493.00                       # Average memory access latency per DRAM burst
system.mem_ctrl.avgRdBW                       1145.74                       # Average DRAM read bandwidth in MiByte/s
system.mem_ctrl.avgWrBW                         25.08                       # Average achieved write bandwidth in MiByte/s
system.mem_ctrl.avgRdBWSys                     862.28                       # Average system read bandwidth in MiByte/s
system.mem_ctrl.avgWrBWSys                      19.48                       # Average system write bandwidth in MiByte/s
system.mem_ctrl.peakBW                        4266.00                       # Theoretical peak bandwidth in MiByte/s
system.mem_ctrl.busUtil                         27.45                       # Data bus utilization in percentage
system.mem_ctrl.busUtilRead                     26.86                       # Data bus utilization in percentage for reads
system.mem_ctrl.busUtilWrite                     0.59                       # Data bus utilization in percentage for writes
system.mem_ctrl.avgRdQLen                        2.59                       # Average read queue length when enqueuing
system.mem_ctrl.avgWrQLen                       23.86                       # Average write queue length when enqueuing
system.mem_ctrl.readRowHits                    565154                       # Number of row buffer hits during reads
system.mem_ctrl.writeRowHits                    12031                       # Number of row buffer hits during writes
system.mem_ctrl.readRowHitRate                  89.40                       # Row buffer hit rate for reads
system.mem_ctrl.writeRowHitRate                 86.74                       # Row buffer hit rate for writes
system.mem_ctrl.avgGap                       30742.01                       # Average gap between requests
system.mem_ctrl.pageHitRate                     89.34                       # Row buffer hit rate, read and write combined
system.mem_ctrl_0.actEnergy              209333730.144000                       # Energy for activate commands per rank (pJ)
system.mem_ctrl_0.preEnergy              73735885.843200                       # Energy for precharge commands per rank (pJ)
system.mem_ctrl_0.readEnergy             1085837768.030400                       # Energy for read commands per rank (pJ)
system.mem_ctrl_0.writeEnergy            21342276.480000                       # Energy for write commands per rank (pJ)
system.mem_ctrl_0.refreshEnergy          126205873.920000                       # Energy for refresh commands per rank (pJ)
system.mem_ctrl_0.actBackEnergy          488572198.254000                       # Energy for active background per rank (pJ)
system.mem_ctrl_0.preBackEnergy          6810647.659200                       # Energy for precharge background per rank (pJ)
system.mem_ctrl_0.actPowerDownEnergy     63560680.659840                       # Energy for active power-down per rank (pJ)
system.mem_ctrl_0.prePowerDownEnergy     31867.762080                       # Energy for precharge power-down per rank (pJ)
system.mem_ctrl_0.selfRefreshEnergy                 0                       # Energy for self refresh per rank (pJ)
system.mem_ctrl_0.totalEnergy            2075430928.752720                       # Total energy per rank (pJ)
system.mem_ctrl_0.averagePower             117.548605                       # Core power per rank (mW)
system.mem_ctrl_0.totalIdleTime            5420344656                       # Total Idle time Per DRAM Rank
system.mem_ctrl_0.memoryStateTime::IDLE      14318000                       # Time in different power states
system.mem_ctrl_0.memoryStateTime::REF      590742500                       # Time in different power states
system.mem_ctrl_0.memoryStateTime::SREF             0                       # Time in different power states
system.mem_ctrl_0.memoryStateTime::PRE_PDN     15622258                       # Time in different power states
system.mem_ctrl_0.memoryStateTime::ACT    11630531344                       # Time in different power states
system.mem_ctrl_0.memoryStateTime::ACT_PDN   5404722398                       # Time in different power states
system.pwrStateResidencyTicks::UNDEFINED  17655936500                       # Cumulative time (in ticks) in various power states
system.cpu.branchPred.lookups                      77                       # Number of BP lookups
system.cpu.branchPred.condPredicted                77                       # Number of conditional branches predicted
system.cpu.branchPred.condIncorrect                31                       # Number of conditional branches incorrect
system.cpu.branchPred.BTBLookups                   43                       # Number of BTB lookups
system.cpu.branchPred.BTBHits                       0                       # Number of BTB hits
system.cpu.branchPred.BTBCorrect                    0                       # Number of correct BTB predictions (this stat may not work properly.
system.cpu.branchPred.BTBHitPct              0.000000                       # BTB Hit Percentage
system.cpu.branchPred.usedRAS                       0                       # Number of times the RAS was used to get a target.
system.cpu.branchPred.RASInCorrect                  0                       # Number of incorrect RAS predictions.
system.cpu.branchPred.indirectLookups              43                       # Number of indirect predictor lookups.
system.cpu.branchPred.indirectHits                  0                       # Number of indirect target hits.
system.cpu.branchPred.indirectMisses               43                       # Number of indirect misses.
system.cpu.branchPredindirectMispredicted           16                       # Number of mispredicted indirect branches.
system.cpu.dtb.walker.pwrStateResidencyTicks::UNDEFINED  17655936500                       # Cumulative time (in ticks) in various power states
system.cpu.dtb.rdAccesses                      283574                       # TLB accesses on read requests
system.cpu.dtb.wrAccesses                       76326                       # TLB accesses on write requests
system.cpu.dtb.rdMisses                          1693                       # TLB misses on read requests
system.cpu.dtb.wrMisses                            33                       # TLB misses on write requests
system.cpu.apic_clk_domain.clock                 8000                       # Clock period in ticks
system.cpu.interrupts.pwrStateResidencyTicks::UNDEFINED  17655936500                       # Cumulative time (in ticks) in various power states
system.cpu.itb.walker.pwrStateResidencyTicks::UNDEFINED  17655936500                       # Cumulative time (in ticks) in various power states
system.cpu.itb.rdAccesses                           0                       # TLB accesses on read requests
system.cpu.itb.wrAccesses                      216797                       # TLB accesses on write requests
system.cpu.itb.rdMisses                             0                       # TLB misses on read requests
system.cpu.itb.wrMisses                            89                       # TLB misses on write requests
system.cpu.workload.numSyscalls                    32                       # Number of system calls
system.cpu.pwrStateResidencyTicks::ON     17655936500                       # Cumulative time (in ticks) in various power states
system.cpu.numCycles                         35311873                       # number of cpu cycles simulated
system.cpu.numWorkItemsStarted                      0                       # number of work items this cpu started
system.cpu.numWorkItemsCompleted                    0                       # number of work items this cpu completed
system.cpu.committedInsts                      567373                       # Number of instructions committed
system.cpu.committedOps                        999102                       # Number of ops (including micro ops) committed
system.cpu.discardedOps                        224375                       # Number of ops (including micro ops) which were discarded before commit
system.cpu.numFetchSuspends                         0                       # Number of times Execute suspended instruction fetching
system.cpu.cpi                              62.237493                       # CPI: cycles per instruction
system.cpu.ipc                               0.016067                       # IPC: instructions per cycle
system.cpu.op_class_0::No_OpClass                1287      0.13%      0.13% # Class of committed instruction
system.cpu.op_class_0::IntAlu                  668743     66.93%     67.06% # Class of committed instruction
system.cpu.op_class_0::IntMult                    146      0.01%     67.08% # Class of committed instruction
system.cpu.op_class_0::IntDiv                    1131      0.11%     67.19% # Class of committed instruction
system.cpu.op_class_0::FloatAdd                  2227      0.22%     67.41% # Class of committed instruction
system.cpu.op_class_0::FloatCmp                     0      0.00%     67.41% # Class of committed instruction
system.cpu.op_class_0::FloatCvt                     0      0.00%     67.41% # Class of committed instruction
system.cpu.op_class_0::FloatMult                    0      0.00%     67.41% # Class of committed instruction
system.cpu.op_class_0::FloatMultAcc                 0      0.00%     67.41% # Class of committed instruction
system.cpu.op_class_0::FloatDiv                     0      0.00%     67.41% # Class of committed instruction
system.cpu.op_class_0::FloatMisc                    0      0.00%     67.41% # Class of committed instruction
system.cpu.op_class_0::FloatSqrt                    0      0.00%     67.41% # Class of committed instruction
system.cpu.op_class_0::SimdAdd                      0      0.00%     67.41% # Class of committed instruction
system.cpu.op_class_0::SimdAddAcc                   0      0.00%     67.41% # Class of committed instruction
system.cpu.op_class_0::SimdAlu                      0      0.00%     67.41% # Class of committed instruction
system.cpu.op_class_0::SimdCmp                      0      0.00%     67.41% # Class of committed instruction
system.cpu.op_class_0::SimdCvt                      0      0.00%     67.41% # Class of committed instruction
system.cpu.op_class_0::SimdMisc                     0      0.00%     67.41% # Class of committed instruction
system.cpu.op_class_0::SimdMult                     0      0.00%     67.41% # Class of committed instruction
system.cpu.op_class_0::SimdMultAcc                  0      0.00%     67.41% # Class of committed instruction
system.cpu.op_class_0::SimdShift                    0      0.00%     67.41% # Class of committed instruction
system.cpu.op_class_0::SimdShiftAcc                 0      0.00%     67.41% # Class of committed instruction
system.cpu.op_class_0::SimdSqrt                     0      0.00%     67.41% # Class of committed instruction
system.cpu.op_class_0::SimdFloatAdd                 0      0.00%     67.41% # Class of committed instruction
system.cpu.op_class_0::SimdFloatAlu                 0      0.00%     67.41% # Class of committed instruction
system.cpu.op_class_0::SimdFloatCmp                 0      0.00%     67.41% # Class of committed instruction
system.cpu.op_class_0::SimdFloatCvt                 0      0.00%     67.41% # Class of committed instruction
system.cpu.op_class_0::SimdFloatDiv                 0      0.00%     67.41% # Class of committed instruction
system.cpu.op_class_0::SimdFloatMisc                0      0.00%     67.41% # Class of committed instruction
system.cpu.op_class_0::SimdFloatMult                0      0.00%     67.41% # Class of committed instruction
system.cpu.op_class_0::SimdFloatMultAcc             0      0.00%     67.41% # Class of committed instruction
system.cpu.op_class_0::SimdFloatSqrt                0      0.00%     67.41% # Class of committed instruction
system.cpu.op_class_0::MemRead                 248632     24.89%     92.30% # Class of committed instruction
system.cpu.op_class_0::MemWrite                 75770      7.58%     99.88% # Class of committed instruction
system.cpu.op_class_0::FloatMemRead               782      0.08%     99.96% # Class of committed instruction
system.cpu.op_class_0::FloatMemWrite              384      0.04%    100.00% # Class of committed instruction
system.cpu.op_class_0::IprAccess                    0      0.00%    100.00% # Class of committed instruction
system.cpu.op_class_0::InstPrefetch                 0      0.00%    100.00% # Class of committed instruction
system.cpu.op_class_0::total                   999102                       # Class of committed instruction
system.cpu.tickCycles                         2968237                       # Number of cycles that the object actually ticked
system.cpu.idleCycles                        32343636                       # Total number of cycles that the object has spent stopped
system.membus.snoop_filter.tot_requests             0                       # Total number of requests made to the snoop filter.
system.membus.snoop_filter.hit_single_requests            0                       # Number of requests hitting in the snoop filter with a single holder of the requested data.
system.membus.snoop_filter.hit_multi_requests            0                       # Number of requests hitting in the snoop filter with multiple (>1) holders of the requested data.
system.membus.snoop_filter.tot_snoops               0                       # Total number of snoops made to the snoop filter.
system.membus.snoop_filter.hit_single_snoops            0                       # Number of snoops hitting in the snoop filter with a single holder of the requested data.
system.membus.snoop_filter.hit_multi_snoops            0                       # Number of snoops hitting in the snoop filter with multiple (>1) holders of the requested data.
system.membus.pwrStateResidencyTicks::UNDEFINED  17655936500                       # Cumulative time (in ticks) in various power states
system.membus.trans_dist::ReadReq              498172                       # Transaction distribution
system.membus.trans_dist::ReadResp             498171                       # Transaction distribution
system.membus.trans_dist::WriteReq              76154                       # Transaction distribution
system.membus.trans_dist::WriteResp             76154                       # Transaction distribution
system.membus.pkt_count_system.cpu.fetch1.icache_port::system.mem_ctrl.port       433593                       # Packet count per connected master and slave (bytes)
system.membus.pkt_count_system.cpu.fetch1.icache_port::total       433593                       # Packet count per connected master and slave (bytes)
system.membus.pkt_count_system.cpu.execute.dcache_port::system.mem_ctrl.port       715058                       # Packet count per connected master and slave (bytes)
system.membus.pkt_count_system.cpu.execute.dcache_port::total       715058                       # Packet count per connected master and slave (bytes)
system.membus.pkt_count::total                1148651                       # Packet count per connected master and slave (bytes)
system.membus.pkt_size_system.cpu.fetch1.icache_port::system.mem_ctrl.port     13874944                       # Cumulative packet size per connected master and slave (bytes)
system.membus.pkt_size_system.cpu.fetch1.icache_port::total     13874944                       # Cumulative packet size per connected master and slave (bytes)
system.membus.pkt_size_system.cpu.execute.dcache_port::system.mem_ctrl.port      1693346                       # Cumulative packet size per connected master and slave (bytes)
system.membus.pkt_size_system.cpu.execute.dcache_port::total      1693346                       # Cumulative packet size per connected master and slave (bytes)
system.membus.pkt_size::total                15568290                       # Cumulative packet size per connected master and slave (bytes)
system.membus.snoops                                0                       # Total snoops (count)
system.membus.snoopTraffic                          0                       # Total snoop traffic (bytes)
system.membus.snoop_fanout::samples            574326                       # Request fanout histogram
system.membus.snoop_fanout::mean                    0                       # Request fanout histogram
system.membus.snoop_fanout::stdev                   0                       # Request fanout histogram
system.membus.snoop_fanout::underflows              0      0.00%      0.00% # Request fanout histogram
system.membus.snoop_fanout::0                  574326    100.00%    100.00% # Request fanout histogram
system.membus.snoop_fanout::1                       0      0.00%    100.00% # Request fanout histogram
system.membus.snoop_fanout::overflows               0      0.00%    100.00% # Request fanout histogram
system.membus.snoop_fanout::min_value               0                       # Request fanout histogram
system.membus.snoop_fanout::max_value               0                       # Request fanout histogram
system.membus.snoop_fanout::total              574326                       # Request fanout histogram
system.membus.reqLayer2.occupancy           325240000                       # Layer occupancy (ticks)
system.membus.reqLayer2.utilization               1.8                       # Layer utilization (%)
system.membus.respLayer0.occupancy          542184148                       # Layer occupancy (ticks)
system.membus.respLayer0.utilization              3.1                       # Layer utilization (%)
system.membus.respLayer1.occupancy          321387486                       # Layer occupancy (ticks)
system.membus.respLayer1.utilization              1.8                       # Layer utilization (%)

---------- End Simulation Statistics   ----------
