
---------- Begin Simulation Statistics ----------
sim_seconds                                  0.057113                       # Number of seconds simulated
sim_ticks                                 57112944000                       # Number of ticks simulated
final_tick                                57112944000                       # Number of ticks from beginning of simulation (restored from checkpoints and never reset)
sim_freq                                 1000000000000                       # Frequency of simulated ticks
host_inst_rate                                 117292                       # Simulator instruction rate (inst/s)
host_op_rate                                   206543                       # Simulator op (including micro ops) rate (op/s)
host_tick_rate                            11806858212                       # Simulator tick rate (ticks/s)
host_mem_usage                                 666116                       # Number of bytes of host memory used
host_seconds                                     4.84                       # Real time elapsed on the host
sim_insts                                      567373                       # Number of instructions simulated
sim_ops                                        999102                       # Number of ops (including micro ops) simulated
system.clk_domain.voltage_domain.voltage            1                       # Voltage in Volts
system.clk_domain.clock                          1000                       # Clock period in ticks
system.mem_ctrl.pwrStateResidencyTicks::UNDEFINED  57112944000                       # Cumulative time (in ticks) in various power states
system.mem_ctrl.bytes_read::cpu.inst          6016336                       # Number of bytes read from this memory
system.mem_ctrl.bytes_read::cpu.data          1200154                       # Number of bytes read from this memory
system.mem_ctrl.bytes_read::total             7216490                       # Number of bytes read from this memory
system.mem_ctrl.bytes_inst_read::cpu.inst      6016336                       # Number of instructions bytes read from this memory
system.mem_ctrl.bytes_inst_read::total        6016336                       # Number of instructions bytes read from this memory
system.mem_ctrl.bytes_written::cpu.data        343939                       # Number of bytes written to this memory
system.mem_ctrl.bytes_written::total           343939                       # Number of bytes written to this memory
system.mem_ctrl.num_reads::cpu.inst            752042                       # Number of read requests responded to by this memory
system.mem_ctrl.num_reads::cpu.data            249423                       # Number of read requests responded to by this memory
system.mem_ctrl.num_reads::total              1001465                       # Number of read requests responded to by this memory
system.mem_ctrl.num_writes::cpu.data            76154                       # Number of write requests responded to by this memory
system.mem_ctrl.num_writes::total               76154                       # Number of write requests responded to by this memory
system.mem_ctrl.bw_read::cpu.inst           105341024                       # Total read bandwidth from this memory (bytes/s)
system.mem_ctrl.bw_read::cpu.data            21013695                       # Total read bandwidth from this memory (bytes/s)
system.mem_ctrl.bw_read::total              126354719                       # Total read bandwidth from this memory (bytes/s)
system.mem_ctrl.bw_inst_read::cpu.inst      105341024                       # Instruction read bandwidth from this memory (bytes/s)
system.mem_ctrl.bw_inst_read::total         105341024                       # Instruction read bandwidth from this memory (bytes/s)
system.mem_ctrl.bw_write::cpu.data            6022085                       # Write bandwidth from this memory (bytes/s)
system.mem_ctrl.bw_write::total               6022085                       # Write bandwidth from this memory (bytes/s)
system.mem_ctrl.bw_total::cpu.inst          105341024                       # Total bandwidth to/from this memory (bytes/s)
system.mem_ctrl.bw_total::cpu.data           27035780                       # Total bandwidth to/from this memory (bytes/s)
system.mem_ctrl.bw_total::total             132376804                       # Total bandwidth to/from this memory (bytes/s)
system.mem_ctrl.readReqs                      1001466                       # Number of read requests accepted
system.mem_ctrl.writeReqs                       76154                       # Number of write requests accepted
system.mem_ctrl.readBursts                    1001466                       # Number of DRAM read bursts, including those serviced by the write queue
system.mem_ctrl.writeBursts                     76154                       # Number of DRAM write bursts, including those merged in the write queue
system.mem_ctrl.bytesReadDRAM                58842624                       # Total number of bytes read from DRAM
system.mem_ctrl.bytesReadWrQ                  5251200                       # Total number of bytes read from write queue
system.mem_ctrl.bytesWritten                   604416                       # Total number of bytes written to DRAM
system.mem_ctrl.bytesReadSys                  7216498                       # Total read bytes from the system interface side
system.mem_ctrl.bytesWrittenSys                343939                       # Total written bytes from the system interface side
system.mem_ctrl.servicedByWrQ                   82050                       # Number of DRAM read bursts serviced by the write queue
system.mem_ctrl.mergedWrBursts                  66679                       # Number of DRAM write bursts merged with an existing one
system.mem_ctrl.neitherReadNorWriteReqs             0                       # Number of requests that are neither read nor write
system.mem_ctrl.perBankRdBursts::0             573119                       # Per bank write bursts
system.mem_ctrl.perBankRdBursts::1              41891                       # Per bank write bursts
system.mem_ctrl.perBankRdBursts::2               5566                       # Per bank write bursts
system.mem_ctrl.perBankRdBursts::3               3386                       # Per bank write bursts
system.mem_ctrl.perBankRdBursts::4               4749                       # Per bank write bursts
system.mem_ctrl.perBankRdBursts::5              76652                       # Per bank write bursts
system.mem_ctrl.perBankRdBursts::6             146021                       # Per bank write bursts
system.mem_ctrl.perBankRdBursts::7              40604                       # Per bank write bursts
system.mem_ctrl.perBankRdBursts::8               2752                       # Per bank write bursts
system.mem_ctrl.perBankRdBursts::9               2719                       # Per bank write bursts
system.mem_ctrl.perBankRdBursts::10              5359                       # Per bank write bursts
system.mem_ctrl.perBankRdBursts::11              1883                       # Per bank write bursts
system.mem_ctrl.perBankRdBursts::12               416                       # Per bank write bursts
system.mem_ctrl.perBankRdBursts::13              2318                       # Per bank write bursts
system.mem_ctrl.perBankRdBursts::14              2423                       # Per bank write bursts
system.mem_ctrl.perBankRdBursts::15              9558                       # Per bank write bursts
system.mem_ctrl.perBankWrBursts::0               1638                       # Per bank write bursts
system.mem_ctrl.perBankWrBursts::1               1745                       # Per bank write bursts
system.mem_ctrl.perBankWrBursts::2               1836                       # Per bank write bursts
system.mem_ctrl.perBankWrBursts::3               1656                       # Per bank write bursts
system.mem_ctrl.perBankWrBursts::4                 24                       # Per bank write bursts
system.mem_ctrl.perBankWrBursts::5                128                       # Per bank write bursts
system.mem_ctrl.perBankWrBursts::6                742                       # Per bank write bursts
system.mem_ctrl.perBankWrBursts::7                 62                       # Per bank write bursts
system.mem_ctrl.perBankWrBursts::8                 33                       # Per bank write bursts
system.mem_ctrl.perBankWrBursts::9                112                       # Per bank write bursts
system.mem_ctrl.perBankWrBursts::10               117                       # Per bank write bursts
system.mem_ctrl.perBankWrBursts::11                75                       # Per bank write bursts
system.mem_ctrl.perBankWrBursts::12                 0                       # Per bank write bursts
system.mem_ctrl.perBankWrBursts::13                 5                       # Per bank write bursts
system.mem_ctrl.perBankWrBursts::14                45                       # Per bank write bursts
system.mem_ctrl.perBankWrBursts::15              1226                       # Per bank write bursts
system.mem_ctrl.numRdRetry                          0                       # Number of times read queue was full causing retry
system.mem_ctrl.numWrRetry                          0                       # Number of times write queue was full causing retry
system.mem_ctrl.totGap                    57112867000                       # Total gap between requests
system.mem_ctrl.readPktSize::0                   7385                       # Read request sizes (log2)
system.mem_ctrl.readPktSize::1                   2599                       # Read request sizes (log2)
system.mem_ctrl.readPktSize::2                 181983                       # Read request sizes (log2)
system.mem_ctrl.readPktSize::3                 809499                       # Read request sizes (log2)
system.mem_ctrl.readPktSize::4                      0                       # Read request sizes (log2)
system.mem_ctrl.readPktSize::5                      0                       # Read request sizes (log2)
system.mem_ctrl.readPktSize::6                      0                       # Read request sizes (log2)
system.mem_ctrl.writePktSize::0                   105                       # Write request sizes (log2)
system.mem_ctrl.writePktSize::1                    19                       # Write request sizes (log2)
system.mem_ctrl.writePktSize::2                 66111                       # Write request sizes (log2)
system.mem_ctrl.writePktSize::3                  9919                       # Write request sizes (log2)
system.mem_ctrl.writePktSize::4                     0                       # Write request sizes (log2)
system.mem_ctrl.writePktSize::5                     0                       # Write request sizes (log2)
system.mem_ctrl.writePktSize::6                     0                       # Write request sizes (log2)
system.mem_ctrl.rdQLenPdf::0                   919407                       # What read queue length does an incoming req see
system.mem_ctrl.rdQLenPdf::1                        9                       # What read queue length does an incoming req see
system.mem_ctrl.rdQLenPdf::2                        0                       # What read queue length does an incoming req see
system.mem_ctrl.rdQLenPdf::3                        0                       # What read queue length does an incoming req see
system.mem_ctrl.rdQLenPdf::4                        0                       # What read queue length does an incoming req see
system.mem_ctrl.rdQLenPdf::5                        0                       # What read queue length does an incoming req see
system.mem_ctrl.rdQLenPdf::6                        0                       # What read queue length does an incoming req see
system.mem_ctrl.rdQLenPdf::7                        0                       # What read queue length does an incoming req see
system.mem_ctrl.rdQLenPdf::8                        0                       # What read queue length does an incoming req see
system.mem_ctrl.rdQLenPdf::9                        0                       # What read queue length does an incoming req see
system.mem_ctrl.rdQLenPdf::10                       0                       # What read queue length does an incoming req see
system.mem_ctrl.rdQLenPdf::11                       0                       # What read queue length does an incoming req see
system.mem_ctrl.rdQLenPdf::12                       0                       # What read queue length does an incoming req see
system.mem_ctrl.rdQLenPdf::13                       0                       # What read queue length does an incoming req see
system.mem_ctrl.rdQLenPdf::14                       0                       # What read queue length does an incoming req see
system.mem_ctrl.rdQLenPdf::15                       0                       # What read queue length does an incoming req see
system.mem_ctrl.rdQLenPdf::16                       0                       # What read queue length does an incoming req see
system.mem_ctrl.rdQLenPdf::17                       0                       # What read queue length does an incoming req see
system.mem_ctrl.rdQLenPdf::18                       0                       # What read queue length does an incoming req see
system.mem_ctrl.rdQLenPdf::19                       0                       # What read queue length does an incoming req see
system.mem_ctrl.rdQLenPdf::20                       0                       # What read queue length does an incoming req see
system.mem_ctrl.rdQLenPdf::21                       0                       # What read queue length does an incoming req see
system.mem_ctrl.rdQLenPdf::22                       0                       # What read queue length does an incoming req see
system.mem_ctrl.rdQLenPdf::23                       0                       # What read queue length does an incoming req see
system.mem_ctrl.rdQLenPdf::24                       0                       # What read queue length does an incoming req see
system.mem_ctrl.rdQLenPdf::25                       0                       # What read queue length does an incoming req see
system.mem_ctrl.rdQLenPdf::26                       0                       # What read queue length does an incoming req see
system.mem_ctrl.rdQLenPdf::27                       0                       # What read queue length does an incoming req see
system.mem_ctrl.rdQLenPdf::28                       0                       # What read queue length does an incoming req see
system.mem_ctrl.rdQLenPdf::29                       0                       # What read queue length does an incoming req see
system.mem_ctrl.rdQLenPdf::30                       0                       # What read queue length does an incoming req see
system.mem_ctrl.rdQLenPdf::31                       0                       # What read queue length does an incoming req see
system.mem_ctrl.wrQLenPdf::0                        1                       # What write queue length does an incoming req see
system.mem_ctrl.wrQLenPdf::1                        1                       # What write queue length does an incoming req see
system.mem_ctrl.wrQLenPdf::2                        1                       # What write queue length does an incoming req see
system.mem_ctrl.wrQLenPdf::3                        1                       # What write queue length does an incoming req see
system.mem_ctrl.wrQLenPdf::4                        1                       # What write queue length does an incoming req see
system.mem_ctrl.wrQLenPdf::5                        1                       # What write queue length does an incoming req see
system.mem_ctrl.wrQLenPdf::6                        1                       # What write queue length does an incoming req see
system.mem_ctrl.wrQLenPdf::7                        1                       # What write queue length does an incoming req see
system.mem_ctrl.wrQLenPdf::8                        1                       # What write queue length does an incoming req see
system.mem_ctrl.wrQLenPdf::9                        1                       # What write queue length does an incoming req see
system.mem_ctrl.wrQLenPdf::10                       1                       # What write queue length does an incoming req see
system.mem_ctrl.wrQLenPdf::11                       1                       # What write queue length does an incoming req see
system.mem_ctrl.wrQLenPdf::12                       1                       # What write queue length does an incoming req see
system.mem_ctrl.wrQLenPdf::13                       1                       # What write queue length does an incoming req see
system.mem_ctrl.wrQLenPdf::14                       1                       # What write queue length does an incoming req see
system.mem_ctrl.wrQLenPdf::15                       3                       # What write queue length does an incoming req see
system.mem_ctrl.wrQLenPdf::16                       3                       # What write queue length does an incoming req see
system.mem_ctrl.wrQLenPdf::17                     591                       # What write queue length does an incoming req see
system.mem_ctrl.wrQLenPdf::18                     591                       # What write queue length does an incoming req see
system.mem_ctrl.wrQLenPdf::19                     591                       # What write queue length does an incoming req see
system.mem_ctrl.wrQLenPdf::20                     591                       # What write queue length does an incoming req see
system.mem_ctrl.wrQLenPdf::21                     591                       # What write queue length does an incoming req see
system.mem_ctrl.wrQLenPdf::22                     591                       # What write queue length does an incoming req see
system.mem_ctrl.wrQLenPdf::23                     591                       # What write queue length does an incoming req see
system.mem_ctrl.wrQLenPdf::24                     591                       # What write queue length does an incoming req see
system.mem_ctrl.wrQLenPdf::25                     591                       # What write queue length does an incoming req see
system.mem_ctrl.wrQLenPdf::26                     591                       # What write queue length does an incoming req see
system.mem_ctrl.wrQLenPdf::27                     591                       # What write queue length does an incoming req see
system.mem_ctrl.wrQLenPdf::28                     591                       # What write queue length does an incoming req see
system.mem_ctrl.wrQLenPdf::29                     591                       # What write queue length does an incoming req see
system.mem_ctrl.wrQLenPdf::30                     591                       # What write queue length does an incoming req see
system.mem_ctrl.wrQLenPdf::31                     590                       # What write queue length does an incoming req see
system.mem_ctrl.wrQLenPdf::32                     590                       # What write queue length does an incoming req see
system.mem_ctrl.wrQLenPdf::33                       0                       # What write queue length does an incoming req see
system.mem_ctrl.wrQLenPdf::34                       0                       # What write queue length does an incoming req see
system.mem_ctrl.wrQLenPdf::35                       0                       # What write queue length does an incoming req see
system.mem_ctrl.wrQLenPdf::36                       0                       # What write queue length does an incoming req see
system.mem_ctrl.wrQLenPdf::37                       0                       # What write queue length does an incoming req see
system.mem_ctrl.wrQLenPdf::38                       0                       # What write queue length does an incoming req see
system.mem_ctrl.wrQLenPdf::39                       0                       # What write queue length does an incoming req see
system.mem_ctrl.wrQLenPdf::40                       0                       # What write queue length does an incoming req see
system.mem_ctrl.wrQLenPdf::41                       0                       # What write queue length does an incoming req see
system.mem_ctrl.wrQLenPdf::42                       0                       # What write queue length does an incoming req see
system.mem_ctrl.wrQLenPdf::43                       0                       # What write queue length does an incoming req see
system.mem_ctrl.wrQLenPdf::44                       0                       # What write queue length does an incoming req see
system.mem_ctrl.wrQLenPdf::45                       0                       # What write queue length does an incoming req see
system.mem_ctrl.wrQLenPdf::46                       0                       # What write queue length does an incoming req see
system.mem_ctrl.wrQLenPdf::47                       0                       # What write queue length does an incoming req see
system.mem_ctrl.wrQLenPdf::48                       0                       # What write queue length does an incoming req see
system.mem_ctrl.wrQLenPdf::49                       0                       # What write queue length does an incoming req see
system.mem_ctrl.wrQLenPdf::50                       0                       # What write queue length does an incoming req see
system.mem_ctrl.wrQLenPdf::51                       0                       # What write queue length does an incoming req see
system.mem_ctrl.wrQLenPdf::52                       0                       # What write queue length does an incoming req see
system.mem_ctrl.wrQLenPdf::53                       0                       # What write queue length does an incoming req see
system.mem_ctrl.wrQLenPdf::54                       0                       # What write queue length does an incoming req see
system.mem_ctrl.wrQLenPdf::55                       0                       # What write queue length does an incoming req see
system.mem_ctrl.wrQLenPdf::56                       0                       # What write queue length does an incoming req see
system.mem_ctrl.wrQLenPdf::57                       0                       # What write queue length does an incoming req see
system.mem_ctrl.wrQLenPdf::58                       0                       # What write queue length does an incoming req see
system.mem_ctrl.wrQLenPdf::59                       0                       # What write queue length does an incoming req see
system.mem_ctrl.wrQLenPdf::60                       0                       # What write queue length does an incoming req see
system.mem_ctrl.wrQLenPdf::61                       0                       # What write queue length does an incoming req see
system.mem_ctrl.wrQLenPdf::62                       0                       # What write queue length does an incoming req see
system.mem_ctrl.wrQLenPdf::63                       0                       # What write queue length does an incoming req see
system.mem_ctrl.bytesPerActivate::samples        88212                       # Bytes accessed per row activation
system.mem_ctrl.bytesPerActivate::mean     673.889992                       # Bytes accessed per row activation
system.mem_ctrl.bytesPerActivate::gmean    465.024374                       # Bytes accessed per row activation
system.mem_ctrl.bytesPerActivate::stdev    393.443627                       # Bytes accessed per row activation
system.mem_ctrl.bytesPerActivate::0-127         16280     18.46%     18.46% # Bytes accessed per row activation
system.mem_ctrl.bytesPerActivate::128-255         4183      4.74%     23.20% # Bytes accessed per row activation
system.mem_ctrl.bytesPerActivate::256-383         2689      3.05%     26.25% # Bytes accessed per row activation
system.mem_ctrl.bytesPerActivate::384-511         8306      9.42%     35.66% # Bytes accessed per row activation
system.mem_ctrl.bytesPerActivate::512-639         5413      6.14%     41.80% # Bytes accessed per row activation
system.mem_ctrl.bytesPerActivate::640-767         2863      3.25%     45.04% # Bytes accessed per row activation
system.mem_ctrl.bytesPerActivate::768-895         2764      3.13%     48.18% # Bytes accessed per row activation
system.mem_ctrl.bytesPerActivate::896-1023         4423      5.01%     53.19% # Bytes accessed per row activation
system.mem_ctrl.bytesPerActivate::1024-1151        41291     46.81%    100.00% # Bytes accessed per row activation
system.mem_ctrl.bytesPerActivate::total         88212                       # Bytes accessed per row activation
system.mem_ctrl.rdPerTurnAround::samples          590                       # Reads before turning the bus around for writes
system.mem_ctrl.rdPerTurnAround::mean     1556.052542                       # Reads before turning the bus around for writes
system.mem_ctrl.rdPerTurnAround::stdev    9898.923202                       # Reads before turning the bus around for writes
system.mem_ctrl.rdPerTurnAround::0-8191           587     99.49%     99.49% # Reads before turning the bus around for writes
system.mem_ctrl.rdPerTurnAround::65536-73727            1      0.17%     99.66% # Reads before turning the bus around for writes
system.mem_ctrl.rdPerTurnAround::81920-90111            1      0.17%     99.83% # Reads before turning the bus around for writes
system.mem_ctrl.rdPerTurnAround::212992-221183            1      0.17%    100.00% # Reads before turning the bus around for writes
system.mem_ctrl.rdPerTurnAround::total            590                       # Reads before turning the bus around for writes
system.mem_ctrl.wrPerTurnAround::samples          590                       # Writes before turning the bus around for reads
system.mem_ctrl.wrPerTurnAround::mean       16.006780                       # Writes before turning the bus around for reads
system.mem_ctrl.wrPerTurnAround::gmean      16.006390                       # Writes before turning the bus around for reads
system.mem_ctrl.wrPerTurnAround::stdev       0.116346                       # Writes before turning the bus around for reads
system.mem_ctrl.wrPerTurnAround::16               588     99.66%     99.66% # Writes before turning the bus around for reads
system.mem_ctrl.wrPerTurnAround::18                 2      0.34%    100.00% # Writes before turning the bus around for reads
system.mem_ctrl.wrPerTurnAround::total            590                       # Writes before turning the bus around for reads
system.mem_ctrl.totQLat                    8795805250                       # Total ticks spent queuing
system.mem_ctrl.totMemAccLat              26034855250                       # Total ticks spent from burst creation until serviced by the DRAM
system.mem_ctrl.totBusLat                  4597080000                       # Total ticks spent in databus transfers
system.mem_ctrl.avgQLat                       9566.73                       # Average queueing delay per DRAM burst
system.mem_ctrl.avgBusLat                     5000.00                       # Average bus latency per DRAM burst
system.mem_ctrl.avgMemAccLat                 28316.73                       # Average memory access latency per DRAM burst
system.mem_ctrl.avgRdBW                       1030.29                       # Average DRAM read bandwidth in MiByte/s
system.mem_ctrl.avgWrBW                         10.58                       # Average achieved write bandwidth in MiByte/s
system.mem_ctrl.avgRdBWSys                     126.35                       # Average system read bandwidth in MiByte/s
system.mem_ctrl.avgWrBWSys                       6.02                       # Average system write bandwidth in MiByte/s
system.mem_ctrl.peakBW                       12800.00                       # Theoretical peak bandwidth in MiByte/s
system.mem_ctrl.busUtil                          8.13                       # Data bus utilization in percentage
system.mem_ctrl.busUtilRead                      8.05                       # Data bus utilization in percentage for reads
system.mem_ctrl.busUtilWrite                     0.08                       # Data bus utilization in percentage for writes
system.mem_ctrl.avgRdQLen                        1.00                       # Average read queue length when enqueuing
system.mem_ctrl.avgWrQLen                       24.58                       # Average write queue length when enqueuing
system.mem_ctrl.readRowHits                    831934                       # Number of row buffer hits during reads
system.mem_ctrl.writeRowHits                     8708                       # Number of row buffer hits during writes
system.mem_ctrl.readRowHitRate                  90.49                       # Row buffer hit rate for reads
system.mem_ctrl.writeRowHitRate                 91.91                       # Row buffer hit rate for writes
system.mem_ctrl.avgGap                       52999.08                       # Average gap between requests
system.mem_ctrl.pageHitRate                     90.50                       # Row buffer hit rate, read and write combined
system.mem_ctrl_0.actEnergy                 607328400                       # Energy for activate commands per rank (pJ)
system.mem_ctrl_0.preEnergy                 322791315                       # Energy for precharge commands per rank (pJ)
system.mem_ctrl_0.readEnergy               6368794320                       # Energy for read commands per rank (pJ)
system.mem_ctrl_0.writeEnergy                40877820                       # Energy for write commands per rank (pJ)
system.mem_ctrl_0.refreshEnergy          4508384400.000001                       # Energy for refresh commands per rank (pJ)
system.mem_ctrl_0.actBackEnergy           12106493340                       # Energy for active background per rank (pJ)
system.mem_ctrl_0.preBackEnergy             111501120                       # Energy for precharge background per rank (pJ)
system.mem_ctrl_0.actPowerDownEnergy      13733899200                       # Energy for active power-down per rank (pJ)
system.mem_ctrl_0.prePowerDownEnergy         49155840                       # Energy for precharge power-down per rank (pJ)
system.mem_ctrl_0.selfRefreshEnergy           8698560                       # Energy for self refresh per rank (pJ)
system.mem_ctrl_0.totalEnergy             37857924315                       # Total energy per rank (pJ)
system.mem_ctrl_0.averagePower             662.860658                       # Core power per rank (mW)
system.mem_ctrl_0.totalIdleTime           30259719000                       # Total Idle time Per DRAM Rank
system.mem_ctrl_0.memoryStateTime::IDLE      31578000                       # Time in different power states
system.mem_ctrl_0.memoryStateTime::REF     1907202000                       # Time in different power states
system.mem_ctrl_0.memoryStateTime::SREF      27038500                       # Time in different power states
system.mem_ctrl_0.memoryStateTime::PRE_PDN    127991000                       # Time in different power states
system.mem_ctrl_0.memoryStateTime::ACT    24913829750                       # Time in different power states
system.mem_ctrl_0.memoryStateTime::ACT_PDN  30105304750                       # Time in different power states
system.mem_ctrl_1.actEnergy                  22548120                       # Energy for activate commands per rank (pJ)
system.mem_ctrl_1.preEnergy                  11973225                       # Energy for precharge commands per rank (pJ)
system.mem_ctrl_1.readEnergy                195828780                       # Energy for read commands per rank (pJ)
system.mem_ctrl_1.writeEnergy                 8419860                       # Energy for write commands per rank (pJ)
system.mem_ctrl_1.refreshEnergy          1735743360.000000                       # Energy for refresh commands per rank (pJ)
system.mem_ctrl_1.actBackEnergy             992280510                       # Energy for active background per rank (pJ)
system.mem_ctrl_1.preBackEnergy              99078240                       # Energy for precharge background per rank (pJ)
system.mem_ctrl_1.actPowerDownEnergy       4179848190                       # Energy for active power-down per rank (pJ)
system.mem_ctrl_1.prePowerDownEnergy       2205566400                       # Energy for precharge power-down per rank (pJ)
system.mem_ctrl_1.selfRefreshEnergy        9898545945                       # Energy for self refresh per rank (pJ)
system.mem_ctrl_1.totalEnergy             19349896380                       # Total energy per rank (pJ)
system.mem_ctrl_1.averagePower             338.800536                       # Core power per rank (mW)
system.mem_ctrl_1.totalIdleTime           54678701500                       # Total Idle time Per DRAM Rank
system.mem_ctrl_1.memoryStateTime::IDLE     190072250                       # Time in different power states
system.mem_ctrl_1.memoryStateTime::REF      738104000                       # Time in different power states
system.mem_ctrl_1.memoryStateTime::SREF   39768731500                       # Time in different power states
system.mem_ctrl_1.memoryStateTime::PRE_PDN   5743842500                       # Time in different power states
system.mem_ctrl_1.memoryStateTime::ACT     1506066250                       # Time in different power states
system.mem_ctrl_1.memoryStateTime::ACT_PDN   9166127500                       # Time in different power states
system.pwrStateResidencyTicks::UNDEFINED  57112944000                       # Cumulative time (in ticks) in various power states
system.cpu.dtb.walker.pwrStateResidencyTicks::UNDEFINED  57112944000                       # Cumulative time (in ticks) in various power states
system.cpu.dtb.rdAccesses                      249423                       # TLB accesses on read requests
system.cpu.dtb.wrAccesses                       76154                       # TLB accesses on write requests
system.cpu.dtb.rdMisses                            70                       # TLB misses on read requests
system.cpu.dtb.wrMisses                            26                       # TLB misses on write requests
system.cpu.apic_clk_domain.clock                16000                       # Clock period in ticks
system.cpu.interrupts.pwrStateResidencyTicks::UNDEFINED  57112944000                       # Cumulative time (in ticks) in various power states
system.cpu.itb.walker.pwrStateResidencyTicks::UNDEFINED  57112944000                       # Cumulative time (in ticks) in various power states
system.cpu.itb.rdAccesses                           0                       # TLB accesses on read requests
system.cpu.itb.wrAccesses                      752043                       # TLB accesses on write requests
system.cpu.itb.rdMisses                             0                       # TLB misses on read requests
system.cpu.itb.wrMisses                            88                       # TLB misses on write requests
system.cpu.workload.numSyscalls                    32                       # Number of system calls
system.cpu.pwrStateResidencyTicks::ON     57112944000                       # Cumulative time (in ticks) in various power states
system.cpu.numCycles                         57112944                       # number of cpu cycles simulated
system.cpu.numWorkItemsStarted                      0                       # number of work items this cpu started
system.cpu.numWorkItemsCompleted                    0                       # number of work items this cpu completed
system.cpu.committedInsts                      567373                       # Number of instructions committed
system.cpu.committedOps                        999102                       # Number of ops (including micro ops) committed
system.cpu.num_int_alu_accesses                995811                       # Number of integer alu accesses
system.cpu.num_fp_alu_accesses                   3447                       # Number of float alu accesses
system.cpu.num_vec_alu_accesses                     0                       # Number of vector alu accesses
system.cpu.num_func_calls                        1354                       # number of times a function call or return occured
system.cpu.num_conditional_control_insts        74244                       # number of instructions that are conditional controls
system.cpu.num_int_insts                       995811                       # number of integer instructions
system.cpu.num_fp_insts                          3447                       # number of float instructions
system.cpu.num_vec_insts                            0                       # number of vector instructions
system.cpu.num_int_register_reads             2058680                       # number of times the integer registers were read
system.cpu.num_int_register_writes             844600                       # number of times the integer registers were written
system.cpu.num_fp_register_reads                 5525                       # number of times the floating registers were read
system.cpu.num_fp_register_writes                2660                       # number of times the floating registers were written
system.cpu.num_vec_register_reads                   0                       # number of times the vector registers were read
system.cpu.num_vec_register_writes                  0                       # number of times the vector registers were written
system.cpu.num_cc_register_reads               415476                       # number of times the CC registers were read
system.cpu.num_cc_register_writes              386790                       # number of times the CC registers were written
system.cpu.num_mem_refs                        325568                       # number of memory refs
system.cpu.num_load_insts                      249414                       # Number of load instructions
system.cpu.num_store_insts                      76154                       # Number of store instructions
system.cpu.num_idle_cycles                          0                       # Number of idle cycles
system.cpu.num_busy_cycles                   57112944                       # Number of busy cycles
system.cpu.not_idle_fraction                        1                       # Percentage of non-idle cycles
system.cpu.idle_fraction                            0                       # Percentage of idle cycles
system.cpu.Branches                             77407                       # Number of branches fetched
system.cpu.op_class::No_OpClass                  1287      0.13%      0.13% # Class of executed instruction
system.cpu.op_class::IntAlu                    668743     66.93%     67.06% # Class of executed instruction
system.cpu.op_class::IntMult                      146      0.01%     67.08% # Class of executed instruction
system.cpu.op_class::IntDiv                      1131      0.11%     67.19% # Class of executed instruction
system.cpu.op_class::FloatAdd                    2227      0.22%     67.41% # Class of executed instruction
system.cpu.op_class::FloatCmp                       0      0.00%     67.41% # Class of executed instruction
system.cpu.op_class::FloatCvt                       0      0.00%     67.41% # Class of executed instruction
system.cpu.op_class::FloatMult                      0      0.00%     67.41% # Class of executed instruction
system.cpu.op_class::FloatMultAcc                   0      0.00%     67.41% # Class of executed instruction
system.cpu.op_class::FloatDiv                       0      0.00%     67.41% # Class of executed instruction
system.cpu.op_class::FloatMisc                      0      0.00%     67.41% # Class of executed instruction
system.cpu.op_class::FloatSqrt                      0      0.00%     67.41% # Class of executed instruction
system.cpu.op_class::SimdAdd                        0      0.00%     67.41% # Class of executed instruction
system.cpu.op_class::SimdAddAcc                     0      0.00%     67.41% # Class of executed instruction
system.cpu.op_class::SimdAlu                        0      0.00%     67.41% # Class of executed instruction
system.cpu.op_class::SimdCmp                        0      0.00%     67.41% # Class of executed instruction
system.cpu.op_class::SimdCvt                        0      0.00%     67.41% # Class of executed instruction
system.cpu.op_class::SimdMisc                       0      0.00%     67.41% # Class of executed instruction
system.cpu.op_class::SimdMult                       0      0.00%     67.41% # Class of executed instruction
system.cpu.op_class::SimdMultAcc                    0      0.00%     67.41% # Class of executed instruction
system.cpu.op_class::SimdShift                      0      0.00%     67.41% # Class of executed instruction
system.cpu.op_class::SimdShiftAcc                   0      0.00%     67.41% # Class of executed instruction
system.cpu.op_class::SimdSqrt                       0      0.00%     67.41% # Class of executed instruction
system.cpu.op_class::SimdFloatAdd                   0      0.00%     67.41% # Class of executed instruction
system.cpu.op_class::SimdFloatAlu                   0      0.00%     67.41% # Class of executed instruction
system.cpu.op_class::SimdFloatCmp                   0      0.00%     67.41% # Class of executed instruction
system.cpu.op_class::SimdFloatCvt                   0      0.00%     67.41% # Class of executed instruction
system.cpu.op_class::SimdFloatDiv                   0      0.00%     67.41% # Class of executed instruction
system.cpu.op_class::SimdFloatMisc                  0      0.00%     67.41% # Class of executed instruction
system.cpu.op_class::SimdFloatMult                  0      0.00%     67.41% # Class of executed instruction
system.cpu.op_class::SimdFloatMultAcc               0      0.00%     67.41% # Class of executed instruction
system.cpu.op_class::SimdFloatSqrt                  0      0.00%     67.41% # Class of executed instruction
system.cpu.op_class::MemRead                   248632     24.89%     92.30% # Class of executed instruction
system.cpu.op_class::MemWrite                   75770      7.58%     99.88% # Class of executed instruction
system.cpu.op_class::FloatMemRead                 782      0.08%     99.96% # Class of executed instruction
system.cpu.op_class::FloatMemWrite                384      0.04%    100.00% # Class of executed instruction
system.cpu.op_class::IprAccess                      0      0.00%    100.00% # Class of executed instruction
system.cpu.op_class::InstPrefetch                   0      0.00%    100.00% # Class of executed instruction
system.cpu.op_class::total                     999102                       # Class of executed instruction
system.membus.snoop_filter.tot_requests             0                       # Total number of requests made to the snoop filter.
system.membus.snoop_filter.hit_single_requests            0                       # Number of requests hitting in the snoop filter with a single holder of the requested data.
system.membus.snoop_filter.hit_multi_requests            0                       # Number of requests hitting in the snoop filter with multiple (>1) holders of the requested data.
system.membus.snoop_filter.tot_snoops               0                       # Total number of snoops made to the snoop filter.
system.membus.snoop_filter.hit_single_snoops            0                       # Number of snoops hitting in the snoop filter with a single holder of the requested data.
system.membus.snoop_filter.hit_multi_snoops            0                       # Number of snoops hitting in the snoop filter with multiple (>1) holders of the requested data.
system.membus.pwrStateResidencyTicks::UNDEFINED  57112944000                       # Cumulative time (in ticks) in various power states
system.membus.trans_dist::ReadReq             1001466                       # Transaction distribution
system.membus.trans_dist::ReadResp            1001465                       # Transaction distribution
system.membus.trans_dist::WriteReq              76154                       # Transaction distribution
system.membus.trans_dist::WriteResp             76154                       # Transaction distribution
system.membus.pkt_count_system.cpu.icache_port::system.mem_ctrl.port      1504085                       # Packet count per connected master and slave (bytes)
system.membus.pkt_count_system.cpu.icache_port::total      1504085                       # Packet count per connected master and slave (bytes)
system.membus.pkt_count_system.cpu.dcache_port::system.mem_ctrl.port       651154                       # Packet count per connected master and slave (bytes)
system.membus.pkt_count_system.cpu.dcache_port::total       651154                       # Packet count per connected master and slave (bytes)
system.membus.pkt_count::total                2155239                       # Packet count per connected master and slave (bytes)
system.membus.pkt_size_system.cpu.icache_port::system.mem_ctrl.port      6016336                       # Cumulative packet size per connected master and slave (bytes)
system.membus.pkt_size_system.cpu.icache_port::total      6016336                       # Cumulative packet size per connected master and slave (bytes)
system.membus.pkt_size_system.cpu.dcache_port::system.mem_ctrl.port      1544093                       # Cumulative packet size per connected master and slave (bytes)
system.membus.pkt_size_system.cpu.dcache_port::total      1544093                       # Cumulative packet size per connected master and slave (bytes)
system.membus.pkt_size::total                 7560429                       # Cumulative packet size per connected master and slave (bytes)
system.membus.snoops                                0                       # Total snoops (count)
system.membus.snoopTraffic                          0                       # Total snoop traffic (bytes)
system.membus.snoop_fanout::samples           1077620                       # Request fanout histogram
system.membus.snoop_fanout::mean                    0                       # Request fanout histogram
system.membus.snoop_fanout::stdev                   0                       # Request fanout histogram
system.membus.snoop_fanout::underflows              0      0.00%      0.00% # Request fanout histogram
system.membus.snoop_fanout::0                 1077620    100.00%    100.00% # Request fanout histogram
system.membus.snoop_fanout::1                       0      0.00%    100.00% # Request fanout histogram
system.membus.snoop_fanout::overflows               0      0.00%    100.00% # Request fanout histogram
system.membus.snoop_fanout::min_value               0                       # Request fanout histogram
system.membus.snoop_fanout::max_value               0                       # Request fanout histogram
system.membus.snoop_fanout::total             1077620                       # Request fanout histogram
system.membus.reqLayer2.occupancy          1153774000                       # Layer occupancy (ticks)
system.membus.reqLayer2.utilization               2.0                       # Layer utilization (%)
system.membus.respLayer0.occupancy         1707055500                       # Layer occupancy (ticks)
system.membus.respLayer0.utilization              3.0                       # Layer utilization (%)
system.membus.respLayer1.occupancy          627938000                       # Layer occupancy (ticks)
system.membus.respLayer1.utilization              1.1                       # Layer utilization (%)

---------- End Simulation Statistics   ----------
