
---------- Begin Simulation Statistics ----------
sim_seconds                                  1.174744                       # Number of seconds simulated
sim_ticks                                1174743915500                       # Number of ticks simulated
final_tick                               1174743915500                       # Number of ticks from beginning of simulation (restored from checkpoints and never reset)
sim_freq                                 1000000000000                       # Frequency of simulated ticks
host_inst_rate                                 132732                       # Simulator instruction rate (inst/s)
host_op_rate                                   228306                       # Simulator op (including micro ops) rate (op/s)
host_tick_rate                             3268876424                       # Simulator tick rate (ticks/s)
host_mem_usage                                 668416                       # Number of bytes of host memory used
host_seconds                                   359.37                       # Real time elapsed on the host
sim_insts                                    47700244                       # Number of instructions simulated
sim_ops                                      82046706                       # Number of ops (including micro ops) simulated
system.clk_domain.voltage_domain.voltage            1                       # Voltage in Volts
system.clk_domain.clock                           500                       # Clock period in ticks
system.mem_ctrl.pwrStateResidencyTicks::UNDEFINED 1174743915500                       # Cumulative time (in ticks) in various power states
system.mem_ctrl.bytes_read::cpu.inst       1171901952                       # Number of bytes read from this memory
system.mem_ctrl.bytes_read::cpu.data        124182777                       # Number of bytes read from this memory
system.mem_ctrl.bytes_read::total          1296084729                       # Number of bytes read from this memory
system.mem_ctrl.bytes_inst_read::cpu.inst   1171901952                       # Number of instructions bytes read from this memory
system.mem_ctrl.bytes_inst_read::total     1171901952                       # Number of instructions bytes read from this memory
system.mem_ctrl.bytes_written::cpu.data      29377849                       # Number of bytes written to this memory
system.mem_ctrl.bytes_written::total         29377849                       # Number of bytes written to this memory
system.mem_ctrl.num_reads::cpu.inst          18310968                       # Number of read requests responded to by this memory
system.mem_ctrl.num_reads::cpu.data          26903598                       # Number of read requests responded to by this memory
system.mem_ctrl.num_reads::total             45214566                       # Number of read requests responded to by this memory
system.mem_ctrl.num_writes::cpu.data          7334621                       # Number of write requests responded to by this memory
system.mem_ctrl.num_writes::total             7334621                       # Number of write requests responded to by this memory
system.mem_ctrl.bw_read::cpu.inst           997580780                       # Total read bandwidth from this memory (bytes/s)
system.mem_ctrl.bw_read::cpu.data           105710509                       # Total read bandwidth from this memory (bytes/s)
system.mem_ctrl.bw_read::total             1103291289                       # Total read bandwidth from this memory (bytes/s)
system.mem_ctrl.bw_inst_read::cpu.inst      997580780                       # Instruction read bandwidth from this memory (bytes/s)
system.mem_ctrl.bw_inst_read::total         997580780                       # Instruction read bandwidth from this memory (bytes/s)
system.mem_ctrl.bw_write::cpu.data           25007875                       # Write bandwidth from this memory (bytes/s)
system.mem_ctrl.bw_write::total              25007875                       # Write bandwidth from this memory (bytes/s)
system.mem_ctrl.bw_total::cpu.inst          997580780                       # Total bandwidth to/from this memory (bytes/s)
system.mem_ctrl.bw_total::cpu.data          130718384                       # Total bandwidth to/from this memory (bytes/s)
system.mem_ctrl.bw_total::total            1128299164                       # Total bandwidth to/from this memory (bytes/s)
system.mem_ctrl.readReqs                     45214567                       # Number of read requests accepted
system.mem_ctrl.writeReqs                     7334621                       # Number of write requests accepted
system.mem_ctrl.readBursts                   45214567                       # Number of DRAM read bursts, including those serviced by the write queue
system.mem_ctrl.writeBursts                   7334621                       # Number of DRAM write bursts, including those merged in the write queue
system.mem_ctrl.bytesReadDRAM              2298677952                       # Total number of bytes read from DRAM
system.mem_ctrl.bytesReadWrQ                595054336                       # Total number of bytes read from write queue
system.mem_ctrl.bytesWritten                 82833792                       # Total number of bytes written to DRAM
system.mem_ctrl.bytesReadSys               1296084793                       # Total read bytes from the system interface side
system.mem_ctrl.bytesWrittenSys              29377849                       # Total written bytes from the system interface side
system.mem_ctrl.servicedByWrQ                 9297724                       # Number of DRAM read bursts serviced by the write queue
system.mem_ctrl.mergedWrBursts                6040321                       # Number of DRAM write bursts merged with an existing one
system.mem_ctrl.neitherReadNorWriteReqs             0                       # Number of requests that are neither read nor write
system.mem_ctrl.perBankRdBursts::0           18324831                       # Per bank write bursts
system.mem_ctrl.perBankRdBursts::1            4188872                       # Per bank write bursts
system.mem_ctrl.perBankRdBursts::2              65235                       # Per bank write bursts
system.mem_ctrl.perBankRdBursts::3              64528                       # Per bank write bursts
system.mem_ctrl.perBankRdBursts::4              66678                       # Per bank write bursts
system.mem_ctrl.perBankRdBursts::5              93990                       # Per bank write bursts
system.mem_ctrl.perBankRdBursts::6           12525316                       # Per bank write bursts
system.mem_ctrl.perBankRdBursts::7              77762                       # Per bank write bursts
system.mem_ctrl.perBankRdBursts::8              63545                       # Per bank write bursts
system.mem_ctrl.perBankRdBursts::9              63418                       # Per bank write bursts
system.mem_ctrl.perBankRdBursts::10             64581                       # Per bank write bursts
system.mem_ctrl.perBankRdBursts::11             64003                       # Per bank write bursts
system.mem_ctrl.perBankRdBursts::12             61842                       # Per bank write bursts
system.mem_ctrl.perBankRdBursts::13             62433                       # Per bank write bursts
system.mem_ctrl.perBankRdBursts::14             62795                       # Per bank write bursts
system.mem_ctrl.perBankRdBursts::15             67014                       # Per bank write bursts
system.mem_ctrl.perBankWrBursts::0              77570                       # Per bank write bursts
system.mem_ctrl.perBankWrBursts::1              78111                       # Per bank write bursts
system.mem_ctrl.perBankWrBursts::2              78262                       # Per bank write bursts
system.mem_ctrl.perBankWrBursts::3              77916                       # Per bank write bursts
system.mem_ctrl.perBankWrBursts::4              77996                       # Per bank write bursts
system.mem_ctrl.perBankWrBursts::5              78143                       # Per bank write bursts
system.mem_ctrl.perBankWrBursts::6             148376                       # Per bank write bursts
system.mem_ctrl.perBankWrBursts::7              76716                       # Per bank write bursts
system.mem_ctrl.perBankWrBursts::8              74793                       # Per bank write bursts
system.mem_ctrl.perBankWrBursts::9              74941                       # Per bank write bursts
system.mem_ctrl.perBankWrBursts::10             74989                       # Per bank write bursts
system.mem_ctrl.perBankWrBursts::11             75027                       # Per bank write bursts
system.mem_ctrl.perBankWrBursts::12             74933                       # Per bank write bursts
system.mem_ctrl.perBankWrBursts::13             75016                       # Per bank write bursts
system.mem_ctrl.perBankWrBursts::14             75126                       # Per bank write bursts
system.mem_ctrl.perBankWrBursts::15             76363                       # Per bank write bursts
system.mem_ctrl.numRdRetry                          0                       # Number of times read queue was full causing retry
system.mem_ctrl.numWrRetry                          0                       # Number of times write queue was full causing retry
system.mem_ctrl.totGap                   1174743912000                       # Total gap between requests
system.mem_ctrl.readPktSize::0                   7599                       # Read request sizes (log2)
system.mem_ctrl.readPktSize::1                   2619                       # Read request sizes (log2)
system.mem_ctrl.readPktSize::2               22744271                       # Read request sizes (log2)
system.mem_ctrl.readPktSize::3                4149109                       # Read request sizes (log2)
system.mem_ctrl.readPktSize::4                      0                       # Read request sizes (log2)
system.mem_ctrl.readPktSize::5                      0                       # Read request sizes (log2)
system.mem_ctrl.readPktSize::6               18310969                       # Read request sizes (log2)
system.mem_ctrl.writePktSize::0                   109                       # Write request sizes (log2)
system.mem_ctrl.writePktSize::1                    20                       # Write request sizes (log2)
system.mem_ctrl.writePktSize::2               7324559                       # Write request sizes (log2)
system.mem_ctrl.writePktSize::3                  9933                       # Write request sizes (log2)
system.mem_ctrl.writePktSize::4                     0                       # Write request sizes (log2)
system.mem_ctrl.writePktSize::5                     0                       # Write request sizes (log2)
system.mem_ctrl.writePktSize::6                     0                       # Write request sizes (log2)
system.mem_ctrl.rdQLenPdf::0                 20713477                       # What read queue length does an incoming req see
system.mem_ctrl.rdQLenPdf::1                 15198729                       # What read queue length does an incoming req see
system.mem_ctrl.rdQLenPdf::2                     4637                       # What read queue length does an incoming req see
system.mem_ctrl.rdQLenPdf::3                        0                       # What read queue length does an incoming req see
system.mem_ctrl.rdQLenPdf::4                        0                       # What read queue length does an incoming req see
system.mem_ctrl.rdQLenPdf::5                        0                       # What read queue length does an incoming req see
system.mem_ctrl.rdQLenPdf::6                        0                       # What read queue length does an incoming req see
system.mem_ctrl.rdQLenPdf::7                        0                       # What read queue length does an incoming req see
system.mem_ctrl.rdQLenPdf::8                        0                       # What read queue length does an incoming req see
system.mem_ctrl.rdQLenPdf::9                        0                       # What read queue length does an incoming req see
system.mem_ctrl.rdQLenPdf::10                       0                       # What read queue length does an incoming req see
system.mem_ctrl.rdQLenPdf::11                       0                       # What read queue length does an incoming req see
system.mem_ctrl.rdQLenPdf::12                       0                       # What read queue length does an incoming req see
system.mem_ctrl.rdQLenPdf::13                       0                       # What read queue length does an incoming req see
system.mem_ctrl.rdQLenPdf::14                       0                       # What read queue length does an incoming req see
system.mem_ctrl.rdQLenPdf::15                       0                       # What read queue length does an incoming req see
system.mem_ctrl.rdQLenPdf::16                       0                       # What read queue length does an incoming req see
system.mem_ctrl.rdQLenPdf::17                       0                       # What read queue length does an incoming req see
system.mem_ctrl.rdQLenPdf::18                       0                       # What read queue length does an incoming req see
system.mem_ctrl.rdQLenPdf::19                       0                       # What read queue length does an incoming req see
system.mem_ctrl.rdQLenPdf::20                       0                       # What read queue length does an incoming req see
system.mem_ctrl.rdQLenPdf::21                       0                       # What read queue length does an incoming req see
system.mem_ctrl.rdQLenPdf::22                       0                       # What read queue length does an incoming req see
system.mem_ctrl.rdQLenPdf::23                       0                       # What read queue length does an incoming req see
system.mem_ctrl.rdQLenPdf::24                       0                       # What read queue length does an incoming req see
system.mem_ctrl.rdQLenPdf::25                       0                       # What read queue length does an incoming req see
system.mem_ctrl.rdQLenPdf::26                       0                       # What read queue length does an incoming req see
system.mem_ctrl.rdQLenPdf::27                       0                       # What read queue length does an incoming req see
system.mem_ctrl.rdQLenPdf::28                       0                       # What read queue length does an incoming req see
system.mem_ctrl.rdQLenPdf::29                       0                       # What read queue length does an incoming req see
system.mem_ctrl.rdQLenPdf::30                       0                       # What read queue length does an incoming req see
system.mem_ctrl.rdQLenPdf::31                       0                       # What read queue length does an incoming req see
system.mem_ctrl.wrQLenPdf::0                        1                       # What write queue length does an incoming req see
system.mem_ctrl.wrQLenPdf::1                        1                       # What write queue length does an incoming req see
system.mem_ctrl.wrQLenPdf::2                        1                       # What write queue length does an incoming req see
system.mem_ctrl.wrQLenPdf::3                        1                       # What write queue length does an incoming req see
system.mem_ctrl.wrQLenPdf::4                        1                       # What write queue length does an incoming req see
system.mem_ctrl.wrQLenPdf::5                        1                       # What write queue length does an incoming req see
system.mem_ctrl.wrQLenPdf::6                        1                       # What write queue length does an incoming req see
system.mem_ctrl.wrQLenPdf::7                        1                       # What write queue length does an incoming req see
system.mem_ctrl.wrQLenPdf::8                        1                       # What write queue length does an incoming req see
system.mem_ctrl.wrQLenPdf::9                        1                       # What write queue length does an incoming req see
system.mem_ctrl.wrQLenPdf::10                       1                       # What write queue length does an incoming req see
system.mem_ctrl.wrQLenPdf::11                       1                       # What write queue length does an incoming req see
system.mem_ctrl.wrQLenPdf::12                       1                       # What write queue length does an incoming req see
system.mem_ctrl.wrQLenPdf::13                       1                       # What write queue length does an incoming req see
system.mem_ctrl.wrQLenPdf::14                       1                       # What write queue length does an incoming req see
system.mem_ctrl.wrQLenPdf::15                     221                       # What write queue length does an incoming req see
system.mem_ctrl.wrQLenPdf::16                     281                       # What write queue length does an incoming req see
system.mem_ctrl.wrQLenPdf::17                   80855                       # What write queue length does an incoming req see
system.mem_ctrl.wrQLenPdf::18                   80861                       # What write queue length does an incoming req see
system.mem_ctrl.wrQLenPdf::19                   80862                       # What write queue length does an incoming req see
system.mem_ctrl.wrQLenPdf::20                   80864                       # What write queue length does an incoming req see
system.mem_ctrl.wrQLenPdf::21                   80862                       # What write queue length does an incoming req see
system.mem_ctrl.wrQLenPdf::22                   80861                       # What write queue length does an incoming req see
system.mem_ctrl.wrQLenPdf::23                   80863                       # What write queue length does an incoming req see
system.mem_ctrl.wrQLenPdf::24                   80863                       # What write queue length does an incoming req see
system.mem_ctrl.wrQLenPdf::25                   80861                       # What write queue length does an incoming req see
system.mem_ctrl.wrQLenPdf::26                   80861                       # What write queue length does an incoming req see
system.mem_ctrl.wrQLenPdf::27                   80863                       # What write queue length does an incoming req see
system.mem_ctrl.wrQLenPdf::28                   80863                       # What write queue length does an incoming req see
system.mem_ctrl.wrQLenPdf::29                   80861                       # What write queue length does an incoming req see
system.mem_ctrl.wrQLenPdf::30                   80861                       # What write queue length does an incoming req see
system.mem_ctrl.wrQLenPdf::31                   80861                       # What write queue length does an incoming req see
system.mem_ctrl.wrQLenPdf::32                   80861                       # What write queue length does an incoming req see
system.mem_ctrl.wrQLenPdf::33                       0                       # What write queue length does an incoming req see
system.mem_ctrl.wrQLenPdf::34                       0                       # What write queue length does an incoming req see
system.mem_ctrl.wrQLenPdf::35                       0                       # What write queue length does an incoming req see
system.mem_ctrl.wrQLenPdf::36                       0                       # What write queue length does an incoming req see
system.mem_ctrl.wrQLenPdf::37                       0                       # What write queue length does an incoming req see
system.mem_ctrl.wrQLenPdf::38                       0                       # What write queue length does an incoming req see
system.mem_ctrl.wrQLenPdf::39                       0                       # What write queue length does an incoming req see
system.mem_ctrl.wrQLenPdf::40                       0                       # What write queue length does an incoming req see
system.mem_ctrl.wrQLenPdf::41                       0                       # What write queue length does an incoming req see
system.mem_ctrl.wrQLenPdf::42                       0                       # What write queue length does an incoming req see
system.mem_ctrl.wrQLenPdf::43                       0                       # What write queue length does an incoming req see
system.mem_ctrl.wrQLenPdf::44                       0                       # What write queue length does an incoming req see
system.mem_ctrl.wrQLenPdf::45                       0                       # What write queue length does an incoming req see
system.mem_ctrl.wrQLenPdf::46                       0                       # What write queue length does an incoming req see
system.mem_ctrl.wrQLenPdf::47                       0                       # What write queue length does an incoming req see
system.mem_ctrl.wrQLenPdf::48                       0                       # What write queue length does an incoming req see
system.mem_ctrl.wrQLenPdf::49                       0                       # What write queue length does an incoming req see
system.mem_ctrl.wrQLenPdf::50                       0                       # What write queue length does an incoming req see
system.mem_ctrl.wrQLenPdf::51                       0                       # What write queue length does an incoming req see
system.mem_ctrl.wrQLenPdf::52                       0                       # What write queue length does an incoming req see
system.mem_ctrl.wrQLenPdf::53                       0                       # What write queue length does an incoming req see
system.mem_ctrl.wrQLenPdf::54                       0                       # What write queue length does an incoming req see
system.mem_ctrl.wrQLenPdf::55                       0                       # What write queue length does an incoming req see
system.mem_ctrl.wrQLenPdf::56                       0                       # What write queue length does an incoming req see
system.mem_ctrl.wrQLenPdf::57                       0                       # What write queue length does an incoming req see
system.mem_ctrl.wrQLenPdf::58                       0                       # What write queue length does an incoming req see
system.mem_ctrl.wrQLenPdf::59                       0                       # What write queue length does an incoming req see
system.mem_ctrl.wrQLenPdf::60                       0                       # What write queue length does an incoming req see
system.mem_ctrl.wrQLenPdf::61                       0                       # What write queue length does an incoming req see
system.mem_ctrl.wrQLenPdf::62                       0                       # What write queue length does an incoming req see
system.mem_ctrl.wrQLenPdf::63                       0                       # What write queue length does an incoming req see
system.mem_ctrl.bytesPerActivate::samples      2968537                       # Bytes accessed per row activation
system.mem_ctrl.bytesPerActivate::mean     802.250450                       # Bytes accessed per row activation
system.mem_ctrl.bytesPerActivate::gmean    619.587959                       # Bytes accessed per row activation
system.mem_ctrl.bytesPerActivate::stdev    360.474638                       # Bytes accessed per row activation
system.mem_ctrl.bytesPerActivate::0-127        308855     10.40%     10.40% # Bytes accessed per row activation
system.mem_ctrl.bytesPerActivate::128-255       143012      4.82%     15.22% # Bytes accessed per row activation
system.mem_ctrl.bytesPerActivate::256-383       130079      4.38%     19.60% # Bytes accessed per row activation
system.mem_ctrl.bytesPerActivate::384-511       127668      4.30%     23.90% # Bytes accessed per row activation
system.mem_ctrl.bytesPerActivate::512-639        35392      1.19%     25.10% # Bytes accessed per row activation
system.mem_ctrl.bytesPerActivate::640-767        82345      2.77%     27.87% # Bytes accessed per row activation
system.mem_ctrl.bytesPerActivate::768-895        43811      1.48%     29.35% # Bytes accessed per row activation
system.mem_ctrl.bytesPerActivate::896-1023       110662      3.73%     33.07% # Bytes accessed per row activation
system.mem_ctrl.bytesPerActivate::1024-1151      1986713     66.93%    100.00% # Bytes accessed per row activation
system.mem_ctrl.bytesPerActivate::total       2968537                       # Bytes accessed per row activation
system.mem_ctrl.rdPerTurnAround::samples        80861                       # Reads before turning the bus around for writes
system.mem_ctrl.rdPerTurnAround::mean      444.179172                       # Reads before turning the bus around for writes
system.mem_ctrl.rdPerTurnAround::gmean     191.100814                       # Reads before turning the bus around for writes
system.mem_ctrl.rdPerTurnAround::stdev   48406.007991                       # Reads before turning the bus around for writes
system.mem_ctrl.rdPerTurnAround::0-524287        80860    100.00%    100.00% # Reads before turning the bus around for writes
system.mem_ctrl.rdPerTurnAround::1.36315e+07-1.41558e+07            1      0.00%    100.00% # Reads before turning the bus around for writes
system.mem_ctrl.rdPerTurnAround::total          80861                       # Reads before turning the bus around for writes
system.mem_ctrl.wrPerTurnAround::samples        80861                       # Writes before turning the bus around for reads
system.mem_ctrl.wrPerTurnAround::mean       16.006208                       # Writes before turning the bus around for reads
system.mem_ctrl.wrPerTurnAround::gmean      16.005871                       # Writes before turning the bus around for reads
system.mem_ctrl.wrPerTurnAround::stdev       0.107870                       # Writes before turning the bus around for reads
system.mem_ctrl.wrPerTurnAround::16             80580     99.65%     99.65% # Writes before turning the bus around for reads
system.mem_ctrl.wrPerTurnAround::17                60      0.07%     99.73% # Writes before turning the bus around for reads
system.mem_ctrl.wrPerTurnAround::18               221      0.27%    100.00% # Writes before turning the bus around for reads
system.mem_ctrl.wrPerTurnAround::total          80861                       # Writes before turning the bus around for reads
system.mem_ctrl.totQLat                  306740577190                       # Total ticks spent queuing
system.mem_ctrl.totMemAccLat             911652046996                       # Total ticks spent from burst creation until serviced by the DRAM
system.mem_ctrl.totBusLat                134759994936                       # Total ticks spent in databus transfers
system.mem_ctrl.avgQLat                       8540.30                       # Average queueing delay per DRAM burst
system.mem_ctrl.avgBusLat                     3752.00                       # Average bus latency per DRAM burst
system.mem_ctrl.avgMemAccLat                 25382.30                       # Average memory access latency per DRAM burst
system.mem_ctrl.avgRdBW                       1956.75                       # Average DRAM read bandwidth in MiByte/s
system.mem_ctrl.avgWrBW                         70.51                       # Average achieved write bandwidth in MiByte/s
system.mem_ctrl.avgRdBWSys                    1103.29                       # Average system read bandwidth in MiByte/s
system.mem_ctrl.avgWrBWSys                      25.01                       # Average system write bandwidth in MiByte/s
system.mem_ctrl.peakBW                       17057.00                       # Theoretical peak bandwidth in MiByte/s
system.mem_ctrl.busUtil                         11.89                       # Data bus utilization in percentage
system.mem_ctrl.busUtilRead                     11.47                       # Data bus utilization in percentage for reads
system.mem_ctrl.busUtilWrite                     0.41                       # Data bus utilization in percentage for writes
system.mem_ctrl.avgRdQLen                        1.65                       # Average read queue length when enqueuing
system.mem_ctrl.avgWrQLen                       27.12                       # Average write queue length when enqueuing
system.mem_ctrl.readRowHits                  33085773                       # Number of row buffer hits during reads
system.mem_ctrl.writeRowHits                  1156806                       # Number of row buffer hits during writes
system.mem_ctrl.readRowHitRate                  92.12                       # Row buffer hit rate for reads
system.mem_ctrl.writeRowHitRate                 89.38                       # Row buffer hit rate for writes
system.mem_ctrl.avgGap                       22355.13                       # Average gap between requests
system.mem_ctrl.pageHitRate                     92.02                       # Row buffer hit rate, read and write combined
system.mem_ctrl_0.actEnergy              30016718012.735996                       # Energy for activate commands per rank (pJ)
system.mem_ctrl_0.preEnergy              14815928546.495998                       # Energy for precharge commands per rank (pJ)
system.mem_ctrl_0.readEnergy             234343624023.935974                       # Energy for read commands per rank (pJ)
system.mem_ctrl_0.writeEnergy            3526242310.080000                       # Energy for write commands per rank (pJ)
system.mem_ctrl_0.refreshEnergy          97257902166.431992                       # Energy for refresh commands per rank (pJ)
system.mem_ctrl_0.actBackEnergy          354864165688.031982                       # Energy for active background per rank (pJ)
system.mem_ctrl_0.preBackEnergy          2723963436.096000                       # Energy for precharge background per rank (pJ)
system.mem_ctrl_0.actPowerDownEnergy     260847977699.231964                       # Energy for active power-down per rank (pJ)
system.mem_ctrl_0.prePowerDownEnergy     1275616152.216000                       # Energy for precharge power-down per rank (pJ)
system.mem_ctrl_0.selfRefreshEnergy      16455416.544000                       # Energy for self refresh per rank (pJ)
system.mem_ctrl_0.totalEnergy            999691310807.783936                       # Total energy per rank (pJ)
system.mem_ctrl_0.averagePower             850.986538                       # Core power per rank (mW)
system.mem_ctrl_0.totalIdleTime          496512466958                       # Total Idle time Per DRAM Rank
system.mem_ctrl_0.memoryStateTime::IDLE    1020686196                       # Time in different power states
system.mem_ctrl_0.memoryStateTime::REF    39238392000                       # Time in different power states
system.mem_ctrl_0.memoryStateTime::SREF      10130152                       # Time in different power states
system.mem_ctrl_0.memoryStateTime::PRE_PDN   2472157406                       # Time in different power states
system.mem_ctrl_0.memoryStateTime::ACT   637972132188                       # Time in different power states
system.mem_ctrl_0.memoryStateTime::ACT_PDN 494030417558                       # Time in different power states
system.mem_ctrl_1.actEnergy              1258700579.136000                       # Energy for activate commands per rank (pJ)
system.mem_ctrl_1.preEnergy              621271295.568000                       # Energy for precharge commands per rank (pJ)
system.mem_ctrl_1.readEnergy             3373000424.639999                       # Energy for read commands per rank (pJ)
system.mem_ctrl_1.writeEnergy            3058671401.856000                       # Energy for write commands per rank (pJ)
system.mem_ctrl_1.refreshEnergy          58571716557.311989                       # Energy for refresh commands per rank (pJ)
system.mem_ctrl_1.actBackEnergy          102195832015.199982                       # Energy for active background per rank (pJ)
system.mem_ctrl_1.preBackEnergy          3474929087.616000                       # Energy for precharge background per rank (pJ)
system.mem_ctrl_1.actPowerDownEnergy     96761943491.135986                       # Energy for active power-down per rank (pJ)
system.mem_ctrl_1.prePowerDownEnergy     102695813123.399994                       # Energy for precharge power-down per rank (pJ)
system.mem_ctrl_1.selfRefreshEnergy      151814576554.367981                       # Energy for self refresh per rank (pJ)
system.mem_ctrl_1.totalEnergy            523863299774.303955                       # Total energy per rank (pJ)
system.mem_ctrl_1.averagePower             445.938296                       # Core power per rank (mW)
system.mem_ctrl_1.totalIdleTime          973293892900                       # Total Idle time Per DRAM Rank
system.mem_ctrl_1.memoryStateTime::IDLE    5531916116                       # Time in different power states
system.mem_ctrl_1.memoryStateTime::REF    23729628000                       # Time in different power states
system.mem_ctrl_1.memoryStateTime::SREF  591009685750                       # Time in different power states
system.mem_ctrl_1.memoryStateTime::PRE_PDN 199022936904                       # Time in different power states
system.mem_ctrl_1.memoryStateTime::ACT   172188478484                       # Time in different power states
system.mem_ctrl_1.memoryStateTime::ACT_PDN 183261270246                       # Time in different power states
system.pwrStateResidencyTicks::UNDEFINED 1174743915500                       # Cumulative time (in ticks) in various power states
system.cpu.branchPred.lookups                      82                       # Number of BP lookups
system.cpu.branchPred.condPredicted                82                       # Number of conditional branches predicted
system.cpu.branchPred.condIncorrect                32                       # Number of conditional branches incorrect
system.cpu.branchPred.BTBLookups                   48                       # Number of BTB lookups
system.cpu.branchPred.BTBHits                       0                       # Number of BTB hits
system.cpu.branchPred.BTBCorrect                    0                       # Number of correct BTB predictions (this stat may not work properly.
system.cpu.branchPred.BTBHitPct              0.000000                       # BTB Hit Percentage
system.cpu.branchPred.usedRAS                       0                       # Number of times the RAS was used to get a target.
system.cpu.branchPred.RASInCorrect                  0                       # Number of incorrect RAS predictions.
system.cpu.branchPred.indirectLookups              48                       # Number of indirect predictor lookups.
system.cpu.branchPred.indirectHits                  0                       # Number of indirect target hits.
system.cpu.branchPred.indirectMisses               48                       # Number of indirect misses.
system.cpu.branchPredindirectMispredicted           17                       # Number of mispredicted indirect branches.
system.cpu.dtb.walker.pwrStateResidencyTicks::UNDEFINED 1174743915500                       # Cumulative time (in ticks) in various power states
system.cpu.dtb.rdAccesses                    26907750                       # TLB accesses on read requests
system.cpu.dtb.wrAccesses                     7334794                       # TLB accesses on write requests
system.cpu.dtb.rdMisses                          2852                       # TLB misses on read requests
system.cpu.dtb.wrMisses                        116850                       # TLB misses on write requests
system.cpu.apic_clk_domain.clock                 8000                       # Clock period in ticks
system.cpu.interrupts.pwrStateResidencyTicks::UNDEFINED 1174743915500                       # Cumulative time (in ticks) in various power states
system.cpu.itb.walker.pwrStateResidencyTicks::UNDEFINED 1174743915500                       # Cumulative time (in ticks) in various power states
system.cpu.itb.rdAccesses                           0                       # TLB accesses on read requests
system.cpu.itb.wrAccesses                    18310969                       # TLB accesses on write requests
system.cpu.itb.rdMisses                             0                       # TLB misses on read requests
system.cpu.itb.wrMisses                            90                       # TLB misses on write requests
system.cpu.workload.numSyscalls                    33                       # Number of system calls
system.cpu.pwrStateResidencyTicks::ON    1174743915500                       # Cumulative time (in ticks) in various power states
system.cpu.numCycles                       2349487831                       # number of cpu cycles simulated
system.cpu.numWorkItemsStarted                      0                       # number of work items this cpu started
system.cpu.numWorkItemsCompleted                    0                       # number of work items this cpu completed
system.cpu.committedInsts                    47700244                       # Number of instructions committed
system.cpu.committedOps                      82046706                       # Number of ops (including micro ops) committed
system.cpu.discardedOps                      18240510                       # Number of ops (including micro ops) which were discarded before commit
system.cpu.numFetchSuspends                         0                       # Number of times Execute suspended instruction fetching
system.cpu.cpi                              49.255258                       # CPI: cycles per instruction
system.cpu.ipc                               0.020302                       # IPC: instructions per cycle
system.cpu.op_class_0::No_OpClass                1287      0.00%      0.00% # Class of committed instruction
system.cpu.op_class_0::IntAlu                50852257     61.98%     61.98% # Class of committed instruction
system.cpu.op_class_0::IntMult                   1192      0.00%     61.98% # Class of committed instruction
system.cpu.op_class_0::IntDiv                    1131      0.00%     61.98% # Class of committed instruction
system.cpu.op_class_0::FloatAdd                  2227      0.00%     61.99% # Class of committed instruction
system.cpu.op_class_0::FloatCmp                     0      0.00%     61.99% # Class of committed instruction
system.cpu.op_class_0::FloatCvt                     0      0.00%     61.99% # Class of committed instruction
system.cpu.op_class_0::FloatMult                    0      0.00%     61.99% # Class of committed instruction
system.cpu.op_class_0::FloatMultAcc                 0      0.00%     61.99% # Class of committed instruction
system.cpu.op_class_0::FloatDiv                     0      0.00%     61.99% # Class of committed instruction
system.cpu.op_class_0::FloatMisc                    0      0.00%     61.99% # Class of committed instruction
system.cpu.op_class_0::FloatSqrt                    0      0.00%     61.99% # Class of committed instruction
system.cpu.op_class_0::SimdAdd                      0      0.00%     61.99% # Class of committed instruction
system.cpu.op_class_0::SimdAddAcc                   0      0.00%     61.99% # Class of committed instruction
system.cpu.op_class_0::SimdAlu                      0      0.00%     61.99% # Class of committed instruction
system.cpu.op_class_0::SimdCmp                      0      0.00%     61.99% # Class of committed instruction
system.cpu.op_class_0::SimdCvt                      0      0.00%     61.99% # Class of committed instruction
system.cpu.op_class_0::SimdMisc                     0      0.00%     61.99% # Class of committed instruction
system.cpu.op_class_0::SimdMult                     0      0.00%     61.99% # Class of committed instruction
system.cpu.op_class_0::SimdMultAcc                  0      0.00%     61.99% # Class of committed instruction
system.cpu.op_class_0::SimdShift                    0      0.00%     61.99% # Class of committed instruction
system.cpu.op_class_0::SimdShiftAcc                 0      0.00%     61.99% # Class of committed instruction
system.cpu.op_class_0::SimdSqrt                     0      0.00%     61.99% # Class of committed instruction
system.cpu.op_class_0::SimdFloatAdd                 0      0.00%     61.99% # Class of committed instruction
system.cpu.op_class_0::SimdFloatAlu                 0      0.00%     61.99% # Class of committed instruction
system.cpu.op_class_0::SimdFloatCmp                 0      0.00%     61.99% # Class of committed instruction
system.cpu.op_class_0::SimdFloatCvt                 0      0.00%     61.99% # Class of committed instruction
system.cpu.op_class_0::SimdFloatDiv                 0      0.00%     61.99% # Class of committed instruction
system.cpu.op_class_0::SimdFloatMisc                0      0.00%     61.99% # Class of committed instruction
system.cpu.op_class_0::SimdFloatMult                0      0.00%     61.99% # Class of committed instruction
system.cpu.op_class_0::SimdFloatMultAcc             0      0.00%     61.99% # Class of committed instruction
system.cpu.op_class_0::SimdFloatSqrt                0      0.00%     61.99% # Class of committed instruction
system.cpu.op_class_0::MemRead               23853209     29.07%     91.06% # Class of committed instruction
system.cpu.op_class_0::MemWrite               7334237      8.94%    100.00% # Class of committed instruction
system.cpu.op_class_0::FloatMemRead               782      0.00%    100.00% # Class of committed instruction
system.cpu.op_class_0::FloatMemWrite              384      0.00%    100.00% # Class of committed instruction
system.cpu.op_class_0::IprAccess                    0      0.00%    100.00% # Class of committed instruction
system.cpu.op_class_0::InstPrefetch                 0      0.00%    100.00% # Class of committed instruction
system.cpu.op_class_0::total                 82046706                       # Class of committed instruction
system.cpu.tickCycles                       255905875                       # Number of cycles that the object actually ticked
system.cpu.idleCycles                      2093581956                       # Total number of cycles that the object has spent stopped
system.membus.snoop_filter.tot_requests             0                       # Total number of requests made to the snoop filter.
system.membus.snoop_filter.hit_single_requests            0                       # Number of requests hitting in the snoop filter with a single holder of the requested data.
system.membus.snoop_filter.hit_multi_requests            0                       # Number of requests hitting in the snoop filter with multiple (>1) holders of the requested data.
system.membus.snoop_filter.tot_snoops               0                       # Total number of snoops made to the snoop filter.
system.membus.snoop_filter.hit_single_snoops            0                       # Number of snoops hitting in the snoop filter with a single holder of the requested data.
system.membus.snoop_filter.hit_multi_snoops            0                       # Number of snoops hitting in the snoop filter with multiple (>1) holders of the requested data.
system.membus.pwrStateResidencyTicks::UNDEFINED 1174743915500                       # Cumulative time (in ticks) in various power states
system.membus.trans_dist::ReadReq            45214567                       # Transaction distribution
system.membus.trans_dist::ReadResp           45214566                       # Transaction distribution
system.membus.trans_dist::WriteReq            7334621                       # Transaction distribution
system.membus.trans_dist::WriteResp           7334621                       # Transaction distribution
system.membus.pkt_count_system.cpu.fetch1.icache_port::system.mem_ctrl.port     36621937                       # Packet count per connected master and slave (bytes)
system.membus.pkt_count_system.cpu.fetch1.icache_port::total     36621937                       # Packet count per connected master and slave (bytes)
system.membus.pkt_count_system.cpu.execute.dcache_port::system.mem_ctrl.port     68476438                       # Packet count per connected master and slave (bytes)
system.membus.pkt_count_system.cpu.execute.dcache_port::total     68476438                       # Packet count per connected master and slave (bytes)
system.membus.pkt_count::total              105098375                       # Packet count per connected master and slave (bytes)
system.membus.pkt_size_system.cpu.fetch1.icache_port::system.mem_ctrl.port   1171901952                       # Cumulative packet size per connected master and slave (bytes)
system.membus.pkt_size_system.cpu.fetch1.icache_port::total   1171901952                       # Cumulative packet size per connected master and slave (bytes)
system.membus.pkt_size_system.cpu.execute.dcache_port::system.mem_ctrl.port    153560626                       # Cumulative packet size per connected master and slave (bytes)
system.membus.pkt_size_system.cpu.execute.dcache_port::total    153560626                       # Cumulative packet size per connected master and slave (bytes)
system.membus.pkt_size::total              1325462578                       # Cumulative packet size per connected master and slave (bytes)
system.membus.snoops                                0                       # Total snoops (count)
system.membus.snoopTraffic                          0                       # Total snoop traffic (bytes)
system.membus.snoop_fanout::samples          52549188                       # Request fanout histogram
system.membus.snoop_fanout::mean                    0                       # Request fanout histogram
system.membus.snoop_fanout::stdev                   0                       # Request fanout histogram
system.membus.snoop_fanout::underflows              0      0.00%      0.00% # Request fanout histogram
system.membus.snoop_fanout::0                52549188    100.00%    100.00% # Request fanout histogram
system.membus.snoop_fanout::1                       0      0.00%    100.00% # Request fanout histogram
system.membus.snoop_fanout::overflows               0      0.00%    100.00% # Request fanout histogram
system.membus.snoop_fanout::min_value               0                       # Request fanout histogram
system.membus.snoop_fanout::max_value               0                       # Request fanout histogram
system.membus.snoop_fanout::total            52549188                       # Request fanout histogram
system.membus.reqLayer2.occupancy         29941904500                       # Layer occupancy (ticks)
system.membus.reqLayer2.utilization               2.5                       # Layer utilization (%)
system.membus.respLayer0.occupancy        49308155648                       # Layer occupancy (ticks)
system.membus.respLayer0.utilization              4.2                       # Layer utilization (%)
system.membus.respLayer1.occupancy        34563624081                       # Layer occupancy (ticks)
system.membus.respLayer1.utilization              2.9                       # Layer utilization (%)

---------- End Simulation Statistics   ----------
