
---------- Begin Simulation Statistics ----------
sim_seconds                                  4.975296                       # Number of seconds simulated
sim_ticks                                4975296089509                       # Number of ticks simulated
final_tick                               4975296089509                       # Number of ticks from beginning of simulation (restored from checkpoints and never reset)
sim_freq                                 1000000000000                       # Frequency of simulated ticks
host_inst_rate                                 275134                       # Simulator instruction rate (inst/s)
host_op_rate                                   473244                       # Simulator op (including micro ops) rate (op/s)
host_tick_rate                            28697446440                       # Simulator tick rate (ticks/s)
host_mem_usage                                 666112                       # Number of bytes of host memory used
host_seconds                                   173.37                       # Real time elapsed on the host
sim_insts                                    47700244                       # Number of instructions simulated
sim_ops                                      82046706                       # Number of ops (including micro ops) simulated
system.clk_domain.voltage_domain.voltage            1                       # Voltage in Volts
system.clk_domain.clock                           667                       # Clock period in ticks
system.mem_ctrl.pwrStateResidencyTicks::UNDEFINED 4975296089509                       # Cumulative time (in ticks) in various power states
system.mem_ctrl.bytes_read::cpu.inst        506545384                       # Number of bytes read from this memory
system.mem_ctrl.bytes_read::cpu.data        111962384                       # Number of bytes read from this memory
system.mem_ctrl.bytes_read::total           618507768                       # Number of bytes read from this memory
system.mem_ctrl.bytes_inst_read::cpu.inst    506545384                       # Number of instructions bytes read from this memory
system.mem_ctrl.bytes_inst_read::total      506545384                       # Number of instructions bytes read from this memory
system.mem_ctrl.bytes_written::cpu.data      29377849                       # Number of bytes written to this memory
system.mem_ctrl.bytes_written::total         29377849                       # Number of bytes written to this memory
system.mem_ctrl.num_reads::cpu.inst          63318173                       # Number of read requests responded to by this memory
system.mem_ctrl.num_reads::cpu.data          23854000                       # Number of read requests responded to by this memory
system.mem_ctrl.num_reads::total             87172173                       # Number of read requests responded to by this memory
system.mem_ctrl.num_writes::cpu.data          7334621                       # Number of write requests responded to by this memory
system.mem_ctrl.num_writes::total             7334621                       # Number of write requests responded to by this memory
system.mem_ctrl.bw_read::cpu.inst           101812108                       # Total read bandwidth from this memory (bytes/s)
system.mem_ctrl.bw_read::cpu.data            22503662                       # Total read bandwidth from this memory (bytes/s)
system.mem_ctrl.bw_read::total              124315771                       # Total read bandwidth from this memory (bytes/s)
system.mem_ctrl.bw_inst_read::cpu.inst      101812108                       # Instruction read bandwidth from this memory (bytes/s)
system.mem_ctrl.bw_inst_read::total         101812108                       # Instruction read bandwidth from this memory (bytes/s)
system.mem_ctrl.bw_write::cpu.data            5904744                       # Write bandwidth from this memory (bytes/s)
system.mem_ctrl.bw_write::total               5904744                       # Write bandwidth from this memory (bytes/s)
system.mem_ctrl.bw_total::cpu.inst          101812108                       # Total bandwidth to/from this memory (bytes/s)
system.mem_ctrl.bw_total::cpu.data           28408406                       # Total bandwidth to/from this memory (bytes/s)
system.mem_ctrl.bw_total::total             130220515                       # Total bandwidth to/from this memory (bytes/s)
system.mem_ctrl.readReqs                     87172174                       # Number of read requests accepted
system.mem_ctrl.writeReqs                     7334621                       # Number of write requests accepted
system.mem_ctrl.readBursts                   87172184                       # Number of DRAM read bursts, including those serviced by the write queue
system.mem_ctrl.writeBursts                   7334621                       # Number of DRAM write bursts, including those merged in the write queue
system.mem_ctrl.bytesReadDRAM              2492907744                       # Total number of bytes read from DRAM
system.mem_ctrl.bytesReadWrQ                296602144                       # Total number of bytes read from write queue
system.mem_ctrl.bytesWritten                 53763584                       # Total number of bytes written to DRAM
system.mem_ctrl.bytesReadSys                618507776                       # Total read bytes from the system interface side
system.mem_ctrl.bytesWrittenSys              29377849                       # Total written bytes from the system interface side
system.mem_ctrl.servicedByWrQ                 9268817                       # Number of DRAM read bursts serviced by the write queue
system.mem_ctrl.mergedWrBursts                5654480                       # Number of DRAM write bursts merged with an existing one
system.mem_ctrl.neitherReadNorWriteReqs             0                       # Number of requests that are neither read nor write
system.mem_ctrl.perBankRdBursts::0            4325545                       # Per bank write bursts
system.mem_ctrl.perBankRdBursts::1           63263036                       # Per bank write bursts
system.mem_ctrl.perBankRdBursts::2             139109                       # Per bank write bursts
system.mem_ctrl.perBankRdBursts::3            9580895                       # Per bank write bursts
system.mem_ctrl.perBankRdBursts::4             134675                       # Per bank write bursts
system.mem_ctrl.perBankRdBursts::5             173609                       # Per bank write bursts
system.mem_ctrl.perBankRdBursts::6             155530                       # Per bank write bursts
system.mem_ctrl.perBankRdBursts::7             130968                       # Per bank write bursts
system.mem_ctrl.perBankWrBursts::0             196506                       # Per bank write bursts
system.mem_ctrl.perBankWrBursts::1             196916                       # Per bank write bursts
system.mem_ctrl.perBankWrBursts::2             200319                       # Per bank write bursts
system.mem_ctrl.perBankWrBursts::3             296249                       # Per bank write bursts
system.mem_ctrl.perBankWrBursts::4             199568                       # Per bank write bursts
system.mem_ctrl.perBankWrBursts::5             197246                       # Per bank write bursts
system.mem_ctrl.perBankWrBursts::6             196800                       # Per bank write bursts
system.mem_ctrl.perBankWrBursts::7             196508                       # Per bank write bursts
system.mem_ctrl.numRdRetry                          0                       # Number of times read queue was full causing retry
system.mem_ctrl.numWrRetry                          0                       # Number of times write queue was full causing retry
system.mem_ctrl.totGap                   4975296010136                       # Total gap between requests
system.mem_ctrl.readPktSize::0                   7395                       # Read request sizes (log2)
system.mem_ctrl.readPktSize::1                   2605                       # Read request sizes (log2)
system.mem_ctrl.readPktSize::2               19700569                       # Read request sizes (log2)
system.mem_ctrl.readPktSize::3               67461615                       # Read request sizes (log2)
system.mem_ctrl.readPktSize::4                      0                       # Read request sizes (log2)
system.mem_ctrl.readPktSize::5                      0                       # Read request sizes (log2)
system.mem_ctrl.writePktSize::0                   109                       # Write request sizes (log2)
system.mem_ctrl.writePktSize::1                    20                       # Write request sizes (log2)
system.mem_ctrl.writePktSize::2               7324559                       # Write request sizes (log2)
system.mem_ctrl.writePktSize::3                  9933                       # Write request sizes (log2)
system.mem_ctrl.writePktSize::4                     0                       # Write request sizes (log2)
system.mem_ctrl.writePktSize::5                     0                       # Write request sizes (log2)
system.mem_ctrl.rdQLenPdf::0                 77903348                       # What read queue length does an incoming req see
system.mem_ctrl.rdQLenPdf::1                       19                       # What read queue length does an incoming req see
system.mem_ctrl.rdQLenPdf::2                        0                       # What read queue length does an incoming req see
system.mem_ctrl.rdQLenPdf::3                        0                       # What read queue length does an incoming req see
system.mem_ctrl.rdQLenPdf::4                        0                       # What read queue length does an incoming req see
system.mem_ctrl.rdQLenPdf::5                        0                       # What read queue length does an incoming req see
system.mem_ctrl.rdQLenPdf::6                        0                       # What read queue length does an incoming req see
system.mem_ctrl.rdQLenPdf::7                        0                       # What read queue length does an incoming req see
system.mem_ctrl.rdQLenPdf::8                        0                       # What read queue length does an incoming req see
system.mem_ctrl.rdQLenPdf::9                        0                       # What read queue length does an incoming req see
system.mem_ctrl.rdQLenPdf::10                       0                       # What read queue length does an incoming req see
system.mem_ctrl.rdQLenPdf::11                       0                       # What read queue length does an incoming req see
system.mem_ctrl.rdQLenPdf::12                       0                       # What read queue length does an incoming req see
system.mem_ctrl.rdQLenPdf::13                       0                       # What read queue length does an incoming req see
system.mem_ctrl.rdQLenPdf::14                       0                       # What read queue length does an incoming req see
system.mem_ctrl.rdQLenPdf::15                       0                       # What read queue length does an incoming req see
system.mem_ctrl.rdQLenPdf::16                       0                       # What read queue length does an incoming req see
system.mem_ctrl.rdQLenPdf::17                       0                       # What read queue length does an incoming req see
system.mem_ctrl.rdQLenPdf::18                       0                       # What read queue length does an incoming req see
system.mem_ctrl.rdQLenPdf::19                       0                       # What read queue length does an incoming req see
system.mem_ctrl.rdQLenPdf::20                       0                       # What read queue length does an incoming req see
system.mem_ctrl.rdQLenPdf::21                       0                       # What read queue length does an incoming req see
system.mem_ctrl.rdQLenPdf::22                       0                       # What read queue length does an incoming req see
system.mem_ctrl.rdQLenPdf::23                       0                       # What read queue length does an incoming req see
system.mem_ctrl.rdQLenPdf::24                       0                       # What read queue length does an incoming req see
system.mem_ctrl.rdQLenPdf::25                       0                       # What read queue length does an incoming req see
system.mem_ctrl.rdQLenPdf::26                       0                       # What read queue length does an incoming req see
system.mem_ctrl.rdQLenPdf::27                       0                       # What read queue length does an incoming req see
system.mem_ctrl.rdQLenPdf::28                       0                       # What read queue length does an incoming req see
system.mem_ctrl.rdQLenPdf::29                       0                       # What read queue length does an incoming req see
system.mem_ctrl.rdQLenPdf::30                       0                       # What read queue length does an incoming req see
system.mem_ctrl.rdQLenPdf::31                       0                       # What read queue length does an incoming req see
system.mem_ctrl.wrQLenPdf::0                        1                       # What write queue length does an incoming req see
system.mem_ctrl.wrQLenPdf::1                        1                       # What write queue length does an incoming req see
system.mem_ctrl.wrQLenPdf::2                        1                       # What write queue length does an incoming req see
system.mem_ctrl.wrQLenPdf::3                        1                       # What write queue length does an incoming req see
system.mem_ctrl.wrQLenPdf::4                        1                       # What write queue length does an incoming req see
system.mem_ctrl.wrQLenPdf::5                        1                       # What write queue length does an incoming req see
system.mem_ctrl.wrQLenPdf::6                        1                       # What write queue length does an incoming req see
system.mem_ctrl.wrQLenPdf::7                        1                       # What write queue length does an incoming req see
system.mem_ctrl.wrQLenPdf::8                        1                       # What write queue length does an incoming req see
system.mem_ctrl.wrQLenPdf::9                        1                       # What write queue length does an incoming req see
system.mem_ctrl.wrQLenPdf::10                       1                       # What write queue length does an incoming req see
system.mem_ctrl.wrQLenPdf::11                       1                       # What write queue length does an incoming req see
system.mem_ctrl.wrQLenPdf::12                       1                       # What write queue length does an incoming req see
system.mem_ctrl.wrQLenPdf::13                       1                       # What write queue length does an incoming req see
system.mem_ctrl.wrQLenPdf::14                       1                       # What write queue length does an incoming req see
system.mem_ctrl.wrQLenPdf::15                       5                       # What write queue length does an incoming req see
system.mem_ctrl.wrQLenPdf::16                       6                       # What write queue length does an incoming req see
system.mem_ctrl.wrQLenPdf::17                  105007                       # What write queue length does an incoming req see
system.mem_ctrl.wrQLenPdf::18                  105007                       # What write queue length does an incoming req see
system.mem_ctrl.wrQLenPdf::19                  105009                       # What write queue length does an incoming req see
system.mem_ctrl.wrQLenPdf::20                  105008                       # What write queue length does an incoming req see
system.mem_ctrl.wrQLenPdf::21                  105008                       # What write queue length does an incoming req see
system.mem_ctrl.wrQLenPdf::22                  105008                       # What write queue length does an incoming req see
system.mem_ctrl.wrQLenPdf::23                  105008                       # What write queue length does an incoming req see
system.mem_ctrl.wrQLenPdf::24                  105008                       # What write queue length does an incoming req see
system.mem_ctrl.wrQLenPdf::25                  105007                       # What write queue length does an incoming req see
system.mem_ctrl.wrQLenPdf::26                  105007                       # What write queue length does an incoming req see
system.mem_ctrl.wrQLenPdf::27                  105007                       # What write queue length does an incoming req see
system.mem_ctrl.wrQLenPdf::28                  105007                       # What write queue length does an incoming req see
system.mem_ctrl.wrQLenPdf::29                  105006                       # What write queue length does an incoming req see
system.mem_ctrl.wrQLenPdf::30                  105006                       # What write queue length does an incoming req see
system.mem_ctrl.wrQLenPdf::31                  105006                       # What write queue length does an incoming req see
system.mem_ctrl.wrQLenPdf::32                  105006                       # What write queue length does an incoming req see
system.mem_ctrl.wrQLenPdf::33                       0                       # What write queue length does an incoming req see
system.mem_ctrl.wrQLenPdf::34                       0                       # What write queue length does an incoming req see
system.mem_ctrl.wrQLenPdf::35                       0                       # What write queue length does an incoming req see
system.mem_ctrl.wrQLenPdf::36                       0                       # What write queue length does an incoming req see
system.mem_ctrl.wrQLenPdf::37                       0                       # What write queue length does an incoming req see
system.mem_ctrl.wrQLenPdf::38                       0                       # What write queue length does an incoming req see
system.mem_ctrl.wrQLenPdf::39                       0                       # What write queue length does an incoming req see
system.mem_ctrl.wrQLenPdf::40                       0                       # What write queue length does an incoming req see
system.mem_ctrl.wrQLenPdf::41                       0                       # What write queue length does an incoming req see
system.mem_ctrl.wrQLenPdf::42                       0                       # What write queue length does an incoming req see
system.mem_ctrl.wrQLenPdf::43                       0                       # What write queue length does an incoming req see
system.mem_ctrl.wrQLenPdf::44                       0                       # What write queue length does an incoming req see
system.mem_ctrl.wrQLenPdf::45                       0                       # What write queue length does an incoming req see
system.mem_ctrl.wrQLenPdf::46                       0                       # What write queue length does an incoming req see
system.mem_ctrl.wrQLenPdf::47                       0                       # What write queue length does an incoming req see
system.mem_ctrl.wrQLenPdf::48                       0                       # What write queue length does an incoming req see
system.mem_ctrl.wrQLenPdf::49                       0                       # What write queue length does an incoming req see
system.mem_ctrl.wrQLenPdf::50                       0                       # What write queue length does an incoming req see
system.mem_ctrl.wrQLenPdf::51                       0                       # What write queue length does an incoming req see
system.mem_ctrl.wrQLenPdf::52                       0                       # What write queue length does an incoming req see
system.mem_ctrl.wrQLenPdf::53                       0                       # What write queue length does an incoming req see
system.mem_ctrl.wrQLenPdf::54                       0                       # What write queue length does an incoming req see
system.mem_ctrl.wrQLenPdf::55                       0                       # What write queue length does an incoming req see
system.mem_ctrl.wrQLenPdf::56                       0                       # What write queue length does an incoming req see
system.mem_ctrl.wrQLenPdf::57                       0                       # What write queue length does an incoming req see
system.mem_ctrl.wrQLenPdf::58                       0                       # What write queue length does an incoming req see
system.mem_ctrl.wrQLenPdf::59                       0                       # What write queue length does an incoming req see
system.mem_ctrl.wrQLenPdf::60                       0                       # What write queue length does an incoming req see
system.mem_ctrl.wrQLenPdf::61                       0                       # What write queue length does an incoming req see
system.mem_ctrl.wrQLenPdf::62                       0                       # What write queue length does an incoming req see
system.mem_ctrl.wrQLenPdf::63                       0                       # What write queue length does an incoming req see
system.mem_ctrl.bytesPerActivate::samples      8687348                       # Bytes accessed per row activation
system.mem_ctrl.bytesPerActivate::mean     293.147112                       # Bytes accessed per row activation
system.mem_ctrl.bytesPerActivate::gmean    206.608816                       # Bytes accessed per row activation
system.mem_ctrl.bytesPerActivate::stdev    198.732480                       # Bytes accessed per row activation
system.mem_ctrl.bytesPerActivate::0-63         835318      9.62%      9.62% # Bytes accessed per row activation
system.mem_ctrl.bytesPerActivate::64-127      1907112     21.95%     31.57% # Bytes accessed per row activation
system.mem_ctrl.bytesPerActivate::128-191      1056609     12.16%     43.73% # Bytes accessed per row activation
system.mem_ctrl.bytesPerActivate::192-255       665454      7.66%     51.39% # Bytes accessed per row activation
system.mem_ctrl.bytesPerActivate::256-319        57988      0.67%     52.06% # Bytes accessed per row activation
system.mem_ctrl.bytesPerActivate::320-383        58448      0.67%     52.73% # Bytes accessed per row activation
system.mem_ctrl.bytesPerActivate::384-447       451579      5.20%     57.93% # Bytes accessed per row activation
system.mem_ctrl.bytesPerActivate::448-511       269751      3.11%     61.03% # Bytes accessed per row activation
system.mem_ctrl.bytesPerActivate::512-575      3385089     38.97%    100.00% # Bytes accessed per row activation
system.mem_ctrl.bytesPerActivate::total       8687348                       # Bytes accessed per row activation
system.mem_ctrl.rdPerTurnAround::samples       105006                       # Reads before turning the bus around for writes
system.mem_ctrl.rdPerTurnAround::mean      741.890959                       # Reads before turning the bus around for writes
system.mem_ctrl.rdPerTurnAround::stdev   65533.966475                       # Reads before turning the bus around for writes
system.mem_ctrl.rdPerTurnAround::0-1.04858e+06       105005    100.00%    100.00% # Reads before turning the bus around for writes
system.mem_ctrl.rdPerTurnAround::2.09715e+07-2.20201e+07            1      0.00%    100.00% # Reads before turning the bus around for writes
system.mem_ctrl.rdPerTurnAround::total         105006                       # Reads before turning the bus around for writes
system.mem_ctrl.wrPerTurnAround::samples       105006                       # Writes before turning the bus around for reads
system.mem_ctrl.wrPerTurnAround::mean       16.000152                       # Writes before turning the bus around for reads
system.mem_ctrl.wrPerTurnAround::gmean      16.000135                       # Writes before turning the bus around for reads
system.mem_ctrl.wrPerTurnAround::stdev       0.025819                       # Writes before turning the bus around for reads
system.mem_ctrl.wrPerTurnAround::16            105002    100.00%    100.00% # Writes before turning the bus around for reads
system.mem_ctrl.wrPerTurnAround::19                 2      0.00%    100.00% # Writes before turning the bus around for reads
system.mem_ctrl.wrPerTurnAround::20                 1      0.00%    100.00% # Writes before turning the bus around for reads
system.mem_ctrl.wrPerTurnAround::22                 1      0.00%    100.00% # Writes before turning the bus around for reads
system.mem_ctrl.wrPerTurnAround::total         105006                       # Writes before turning the bus around for reads
system.mem_ctrl.totQLat                  857890978199                       # Total ticks spent queuing
system.mem_ctrl.totMemAccLat             2610716735699                       # Total ticks spent from burst creation until serviced by the DRAM
system.mem_ctrl.totBusLat                584275252500                       # Total ticks spent in databus transfers
system.mem_ctrl.avgQLat                      11012.25                       # Average queueing delay per DRAM burst
system.mem_ctrl.avgBusLat                     7500.00                       # Average bus latency per DRAM burst
system.mem_ctrl.avgMemAccLat                 33512.25                       # Average memory access latency per DRAM burst
system.mem_ctrl.avgRdBW                        501.06                       # Average DRAM read bandwidth in MiByte/s
system.mem_ctrl.avgWrBW                         10.81                       # Average achieved write bandwidth in MiByte/s
system.mem_ctrl.avgRdBWSys                     124.32                       # Average system read bandwidth in MiByte/s
system.mem_ctrl.avgWrBWSys                       5.90                       # Average system write bandwidth in MiByte/s
system.mem_ctrl.peakBW                        4266.00                       # Theoretical peak bandwidth in MiByte/s
system.mem_ctrl.busUtil                         12.00                       # Data bus utilization in percentage
system.mem_ctrl.busUtilRead                     11.75                       # Data bus utilization in percentage for reads
system.mem_ctrl.busUtilWrite                     0.25                       # Data bus utilization in percentage for writes
system.mem_ctrl.avgRdQLen                        1.00                       # Average read queue length when enqueuing
system.mem_ctrl.avgWrQLen                       24.90                       # Average write queue length when enqueuing
system.mem_ctrl.readRowHits                  69661284                       # Number of row buffer hits during reads
system.mem_ctrl.writeRowHits                  1234845                       # Number of row buffer hits during writes
system.mem_ctrl.readRowHitRate                  89.42                       # Row buffer hit rate for reads
system.mem_ctrl.writeRowHitRate                 73.50                       # Row buffer hit rate for writes
system.mem_ctrl.avgGap                       52644.85                       # Average gap between requests
system.mem_ctrl.pageHitRate                     89.08                       # Row buffer hit rate, read and write combined
system.mem_ctrl_0.actEnergy              26426345334.899994                       # Energy for activate commands per rank (pJ)
system.mem_ctrl_0.preEnergy              9309111921.177599                       # Energy for precharge commands per rank (pJ)
system.mem_ctrl_0.readEnergy             133811931902.409592                       # Energy for read commands per rank (pJ)
system.mem_ctrl_0.writeEnergy            2590853672.064000                       # Energy for write commands per rank (pJ)
system.mem_ctrl_0.refreshEnergy          35568781423.559998                       # Energy for refresh commands per rank (pJ)
system.mem_ctrl_0.actBackEnergy          109759433940.323975                       # Energy for active background per rank (pJ)
system.mem_ctrl_0.preBackEnergy          1631020441.881600                       # Energy for precharge background per rank (pJ)
system.mem_ctrl_0.actPowerDownEnergy     26142040462.285435                       # Energy for active power-down per rank (pJ)
system.mem_ctrl_0.prePowerDownEnergy     2114665.395360                       # Energy for precharge power-down per rank (pJ)
system.mem_ctrl_0.selfRefreshEnergy                 0                       # Energy for self refresh per rank (pJ)
system.mem_ctrl_0.totalEnergy            345241633763.997559                       # Total energy per rank (pJ)
system.mem_ctrl_0.averagePower              69.391173                       # Core power per rank (mW)
system.mem_ctrl_0.totalIdleTime          2224002548335                       # Total Idle time Per DRAM Rank
system.mem_ctrl_0.memoryStateTime::IDLE    4122075000                       # Time in different power states
system.mem_ctrl_0.memoryStateTime::REF   166483467500                       # Time in different power states
system.mem_ctrl_0.memoryStateTime::SREF             0                       # Time in different power states
system.mem_ctrl_0.memoryStateTime::PRE_PDN   1036608882                       # Time in different power states
system.mem_ctrl_0.memoryStateTime::ACT   2580687998674                       # Time in different power states
system.mem_ctrl_0.memoryStateTime::ACT_PDN 2222965939453                       # Time in different power states
system.pwrStateResidencyTicks::UNDEFINED 4975296089509                       # Cumulative time (in ticks) in various power states
system.cpu.dtb.walker.pwrStateResidencyTicks::UNDEFINED 4975296089509                       # Cumulative time (in ticks) in various power states
system.cpu.dtb.rdAccesses                    23854000                       # TLB accesses on read requests
system.cpu.dtb.wrAccesses                     7334621                       # TLB accesses on write requests
system.cpu.dtb.rdMisses                          1229                       # TLB misses on read requests
system.cpu.dtb.wrMisses                        116843                       # TLB misses on write requests
system.cpu.apic_clk_domain.clock                10672                       # Clock period in ticks
system.cpu.interrupts.pwrStateResidencyTicks::UNDEFINED 4975296089509                       # Cumulative time (in ticks) in various power states
system.cpu.itb.walker.pwrStateResidencyTicks::UNDEFINED 4975296089509                       # Cumulative time (in ticks) in various power states
system.cpu.itb.rdAccesses                           0                       # TLB accesses on read requests
system.cpu.itb.wrAccesses                    63318174                       # TLB accesses on write requests
system.cpu.itb.rdMisses                             0                       # TLB misses on read requests
system.cpu.itb.wrMisses                            89                       # TLB misses on write requests
system.cpu.workload.numSyscalls                    33                       # Number of system calls
system.cpu.pwrStateResidencyTicks::ON    4975296089509                       # Cumulative time (in ticks) in various power states
system.cpu.numCycles                       7459214527                       # number of cpu cycles simulated
system.cpu.numWorkItemsStarted                      0                       # number of work items this cpu started
system.cpu.numWorkItemsCompleted                    0                       # number of work items this cpu completed
system.cpu.committedInsts                    47700244                       # Number of instructions committed
system.cpu.committedOps                      82046706                       # Number of ops (including micro ops) committed
system.cpu.num_int_alu_accesses              82043407                       # Number of integer alu accesses
system.cpu.num_fp_alu_accesses                   3447                       # Number of float alu accesses
system.cpu.num_vec_alu_accesses                     0                       # Number of vector alu accesses
system.cpu.num_func_calls                        1358                       # number of times a function call or return occured
system.cpu.num_conditional_control_insts      5151277                       # number of instructions that are conditional controls
system.cpu.num_int_insts                     82043407                       # number of integer instructions
system.cpu.num_fp_insts                          3447                       # number of float instructions
system.cpu.num_vec_insts                            0                       # number of vector instructions
system.cpu.num_int_register_reads           173517092                       # number of times the integer registers were read
system.cpu.num_int_register_writes           69557594                       # number of times the integer registers were written
system.cpu.num_fp_register_reads                 5525                       # number of times the floating registers were read
system.cpu.num_fp_register_writes                2660                       # number of times the floating registers were written
system.cpu.num_vec_register_reads                   0                       # number of times the vector registers were read
system.cpu.num_vec_register_writes                  0                       # number of times the vector registers were written
system.cpu.num_cc_register_reads             26790677                       # number of times the CC registers were read
system.cpu.num_cc_register_writes            31250784                       # number of times the CC registers were written
system.cpu.num_mem_refs                      31188612                       # number of memory refs
system.cpu.num_load_insts                    23853991                       # Number of load instructions
system.cpu.num_store_insts                    7334621                       # Number of store instructions
system.cpu.num_idle_cycles                          0                       # Number of idle cycles
system.cpu.num_busy_cycles                 7459214527                       # Number of busy cycles
system.cpu.not_idle_fraction                        1                       # Percentage of non-idle cycles
system.cpu.idle_fraction                            0                       # Percentage of idle cycles
system.cpu.Branches                           5154587                       # Number of branches fetched
system.cpu.op_class::No_OpClass                  1287      0.00%      0.00% # Class of executed instruction
system.cpu.op_class::IntAlu                  50852257     61.98%     61.98% # Class of executed instruction
system.cpu.op_class::IntMult                     1192      0.00%     61.98% # Class of executed instruction
system.cpu.op_class::IntDiv                      1131      0.00%     61.98% # Class of executed instruction
system.cpu.op_class::FloatAdd                    2227      0.00%     61.99% # Class of executed instruction
system.cpu.op_class::FloatCmp                       0      0.00%     61.99% # Class of executed instruction
system.cpu.op_class::FloatCvt                       0      0.00%     61.99% # Class of executed instruction
system.cpu.op_class::FloatMult                      0      0.00%     61.99% # Class of executed instruction
system.cpu.op_class::FloatMultAcc                   0      0.00%     61.99% # Class of executed instruction
system.cpu.op_class::FloatDiv                       0      0.00%     61.99% # Class of executed instruction
system.cpu.op_class::FloatMisc                      0      0.00%     61.99% # Class of executed instruction
system.cpu.op_class::FloatSqrt                      0      0.00%     61.99% # Class of executed instruction
system.cpu.op_class::SimdAdd                        0      0.00%     61.99% # Class of executed instruction
system.cpu.op_class::SimdAddAcc                     0      0.00%     61.99% # Class of executed instruction
system.cpu.op_class::SimdAlu                        0      0.00%     61.99% # Class of executed instruction
system.cpu.op_class::SimdCmp                        0      0.00%     61.99% # Class of executed instruction
system.cpu.op_class::SimdCvt                        0      0.00%     61.99% # Class of executed instruction
system.cpu.op_class::SimdMisc                       0      0.00%     61.99% # Class of executed instruction
system.cpu.op_class::SimdMult                       0      0.00%     61.99% # Class of executed instruction
system.cpu.op_class::SimdMultAcc                    0      0.00%     61.99% # Class of executed instruction
system.cpu.op_class::SimdShift                      0      0.00%     61.99% # Class of executed instruction
system.cpu.op_class::SimdShiftAcc                   0      0.00%     61.99% # Class of executed instruction
system.cpu.op_class::SimdSqrt                       0      0.00%     61.99% # Class of executed instruction
system.cpu.op_class::SimdFloatAdd                   0      0.00%     61.99% # Class of executed instruction
system.cpu.op_class::SimdFloatAlu                   0      0.00%     61.99% # Class of executed instruction
system.cpu.op_class::SimdFloatCmp                   0      0.00%     61.99% # Class of executed instruction
system.cpu.op_class::SimdFloatCvt                   0      0.00%     61.99% # Class of executed instruction
system.cpu.op_class::SimdFloatDiv                   0      0.00%     61.99% # Class of executed instruction
system.cpu.op_class::SimdFloatMisc                  0      0.00%     61.99% # Class of executed instruction
system.cpu.op_class::SimdFloatMult                  0      0.00%     61.99% # Class of executed instruction
system.cpu.op_class::SimdFloatMultAcc               0      0.00%     61.99% # Class of executed instruction
system.cpu.op_class::SimdFloatSqrt                  0      0.00%     61.99% # Class of executed instruction
system.cpu.op_class::MemRead                 23853209     29.07%     91.06% # Class of executed instruction
system.cpu.op_class::MemWrite                 7334237      8.94%    100.00% # Class of executed instruction
system.cpu.op_class::FloatMemRead                 782      0.00%    100.00% # Class of executed instruction
system.cpu.op_class::FloatMemWrite                384      0.00%    100.00% # Class of executed instruction
system.cpu.op_class::IprAccess                      0      0.00%    100.00% # Class of executed instruction
system.cpu.op_class::InstPrefetch                   0      0.00%    100.00% # Class of executed instruction
system.cpu.op_class::total                   82046706                       # Class of executed instruction
system.membus.snoop_filter.tot_requests             0                       # Total number of requests made to the snoop filter.
system.membus.snoop_filter.hit_single_requests            0                       # Number of requests hitting in the snoop filter with a single holder of the requested data.
system.membus.snoop_filter.hit_multi_requests            0                       # Number of requests hitting in the snoop filter with multiple (>1) holders of the requested data.
system.membus.snoop_filter.tot_snoops               0                       # Total number of snoops made to the snoop filter.
system.membus.snoop_filter.hit_single_snoops            0                       # Number of snoops hitting in the snoop filter with a single holder of the requested data.
system.membus.snoop_filter.hit_multi_snoops            0                       # Number of snoops hitting in the snoop filter with multiple (>1) holders of the requested data.
system.membus.pwrStateResidencyTicks::UNDEFINED 4975296089509                       # Cumulative time (in ticks) in various power states
system.membus.trans_dist::ReadReq            87172174                       # Transaction distribution
system.membus.trans_dist::ReadResp           87172173                       # Transaction distribution
system.membus.trans_dist::WriteReq            7334621                       # Transaction distribution
system.membus.trans_dist::WriteResp           7334621                       # Transaction distribution
system.membus.pkt_count_system.cpu.icache_port::system.mem_ctrl.port    126636347                       # Packet count per connected master and slave (bytes)
system.membus.pkt_count_system.cpu.icache_port::total    126636347                       # Packet count per connected master and slave (bytes)
system.membus.pkt_count_system.cpu.dcache_port::system.mem_ctrl.port     62377242                       # Packet count per connected master and slave (bytes)
system.membus.pkt_count_system.cpu.dcache_port::total     62377242                       # Packet count per connected master and slave (bytes)
system.membus.pkt_count::total              189013589                       # Packet count per connected master and slave (bytes)
system.membus.pkt_size_system.cpu.icache_port::system.mem_ctrl.port    506545384                       # Cumulative packet size per connected master and slave (bytes)
system.membus.pkt_size_system.cpu.icache_port::total    506545384                       # Cumulative packet size per connected master and slave (bytes)
system.membus.pkt_size_system.cpu.dcache_port::system.mem_ctrl.port    141340233                       # Cumulative packet size per connected master and slave (bytes)
system.membus.pkt_size_system.cpu.dcache_port::total    141340233                       # Cumulative packet size per connected master and slave (bytes)
system.membus.pkt_size::total               647885617                       # Cumulative packet size per connected master and slave (bytes)
system.membus.snoops                                0                       # Total snoops (count)
system.membus.snoopTraffic                          0                       # Total snoop traffic (bytes)
system.membus.snoop_fanout::samples          94506795                       # Request fanout histogram
system.membus.snoop_fanout::mean                    0                       # Request fanout histogram
system.membus.snoop_fanout::stdev                   0                       # Request fanout histogram
system.membus.snoop_fanout::underflows              0      0.00%      0.00% # Request fanout histogram
system.membus.snoop_fanout::0                94506795    100.00%    100.00% # Request fanout histogram
system.membus.snoop_fanout::1                       0      0.00%    100.00% # Request fanout histogram
system.membus.snoop_fanout::overflows               0      0.00%    100.00% # Request fanout histogram
system.membus.snoop_fanout::min_value               0                       # Request fanout histogram
system.membus.snoop_fanout::max_value               0                       # Request fanout histogram
system.membus.snoop_fanout::total            94506795                       # Request fanout histogram
system.membus.reqLayer2.occupancy         67928224472                       # Layer occupancy (ticks)
system.membus.reqLayer2.utilization               1.4                       # Layer utilization (%)
system.membus.respLayer0.occupancy        88143731844                       # Layer occupancy (ticks)
system.membus.respLayer0.utilization              1.8                       # Layer utilization (%)
system.membus.respLayer1.occupancy        38262455043                       # Layer occupancy (ticks)
system.membus.respLayer1.utilization              0.8                       # Layer utilization (%)

---------- End Simulation Statistics   ----------
