
---------- Begin Simulation Statistics ----------
sim_seconds                                  1.414261                       # Number of seconds simulated
sim_ticks                                1414261323000                       # Number of ticks simulated
final_tick                               1414261323000                       # Number of ticks from beginning of simulation (restored from checkpoints and never reset)
sim_freq                                 1000000000000                       # Frequency of simulated ticks
host_inst_rate                                 112655                       # Simulator instruction rate (inst/s)
host_op_rate                                   193773                       # Simulator op (including micro ops) rate (op/s)
host_tick_rate                             3340112153                       # Simulator tick rate (ticks/s)
host_mem_usage                                 668420                       # Number of bytes of host memory used
host_seconds                                   423.42                       # Real time elapsed on the host
sim_insts                                    47700244                       # Number of instructions simulated
sim_ops                                      82046706                       # Number of ops (including micro ops) simulated
system.clk_domain.voltage_domain.voltage            1                       # Voltage in Volts
system.clk_domain.clock                           333                       # Clock period in ticks
system.mem_ctrl.pwrStateResidencyTicks::UNDEFINED 1414261323000                       # Cumulative time (in ticks) in various power states
system.mem_ctrl.bytes_read::cpu.inst       1171885696                       # Number of bytes read from this memory
system.mem_ctrl.bytes_read::cpu.data        124182856                       # Number of bytes read from this memory
system.mem_ctrl.bytes_read::total          1296068552                       # Number of bytes read from this memory
system.mem_ctrl.bytes_inst_read::cpu.inst   1171885696                       # Number of instructions bytes read from this memory
system.mem_ctrl.bytes_inst_read::total     1171885696                       # Number of instructions bytes read from this memory
system.mem_ctrl.bytes_written::cpu.data      29377849                       # Number of bytes written to this memory
system.mem_ctrl.bytes_written::total         29377849                       # Number of bytes written to this memory
system.mem_ctrl.num_reads::cpu.inst          18310714                       # Number of read requests responded to by this memory
system.mem_ctrl.num_reads::cpu.data          26903607                       # Number of read requests responded to by this memory
system.mem_ctrl.num_reads::total             45214321                       # Number of read requests responded to by this memory
system.mem_ctrl.num_writes::cpu.data          7334621                       # Number of write requests responded to by this memory
system.mem_ctrl.num_writes::total             7334621                       # Number of write requests responded to by this memory
system.mem_ctrl.bw_read::cpu.inst           828620338                       # Total read bandwidth from this memory (bytes/s)
system.mem_ctrl.bw_read::cpu.data            87807574                       # Total read bandwidth from this memory (bytes/s)
system.mem_ctrl.bw_read::total              916427913                       # Total read bandwidth from this memory (bytes/s)
system.mem_ctrl.bw_inst_read::cpu.inst      828620338                       # Instruction read bandwidth from this memory (bytes/s)
system.mem_ctrl.bw_inst_read::total         828620338                       # Instruction read bandwidth from this memory (bytes/s)
system.mem_ctrl.bw_write::cpu.data           20772575                       # Write bandwidth from this memory (bytes/s)
system.mem_ctrl.bw_write::total              20772575                       # Write bandwidth from this memory (bytes/s)
system.mem_ctrl.bw_total::cpu.inst          828620338                       # Total bandwidth to/from this memory (bytes/s)
system.mem_ctrl.bw_total::cpu.data          108580149                       # Total bandwidth to/from this memory (bytes/s)
system.mem_ctrl.bw_total::total             937200487                       # Total bandwidth to/from this memory (bytes/s)
system.mem_ctrl.readReqs                     45214322                       # Number of read requests accepted
system.mem_ctrl.writeReqs                     7334621                       # Number of write requests accepted
system.mem_ctrl.readBursts                   63525047                       # Number of DRAM read bursts, including those serviced by the write queue
system.mem_ctrl.writeBursts                   7334621                       # Number of DRAM write bursts, including those merged in the write queue
system.mem_ctrl.bytesReadDRAM              1736122880                       # Total number of bytes read from DRAM
system.mem_ctrl.bytesReadWrQ                296678624                       # Total number of bytes read from write queue
system.mem_ctrl.bytesWritten                 53704704                       # Total number of bytes written to DRAM
system.mem_ctrl.bytesReadSys               1296068616                       # Total read bytes from the system interface side
system.mem_ctrl.bytesWrittenSys              29377849                       # Total written bytes from the system interface side
system.mem_ctrl.servicedByWrQ                 9271207                       # Number of DRAM read bursts serviced by the write queue
system.mem_ctrl.mergedWrBursts                5656319                       # Number of DRAM write bursts merged with an existing one
system.mem_ctrl.neitherReadNorWriteReqs             0                       # Number of requests that are neither read nor write
system.mem_ctrl.perBankRdBursts::0            4305873                       # Per bank write bursts
system.mem_ctrl.perBankRdBursts::1           36648703                       # Per bank write bursts
system.mem_ctrl.perBankRdBursts::2             136154                       # Per bank write bursts
system.mem_ctrl.perBankRdBursts::3           12606648                       # Per bank write bursts
system.mem_ctrl.perBankRdBursts::4             132613                       # Per bank write bursts
system.mem_ctrl.perBankRdBursts::5             150900                       # Per bank write bursts
system.mem_ctrl.perBankRdBursts::6             141778                       # Per bank write bursts
system.mem_ctrl.perBankRdBursts::7             131171                       # Per bank write bursts
system.mem_ctrl.perBankWrBursts::0             196507                       # Per bank write bursts
system.mem_ctrl.perBankWrBursts::1             196893                       # Per bank write bursts
system.mem_ctrl.perBankWrBursts::2             199729                       # Per bank write bursts
system.mem_ctrl.perBankWrBursts::3             294629                       # Per bank write bursts
system.mem_ctrl.perBankWrBursts::4             199677                       # Per bank write bursts
system.mem_ctrl.perBankWrBursts::5             197199                       # Per bank write bursts
system.mem_ctrl.perBankWrBursts::6             197119                       # Per bank write bursts
system.mem_ctrl.perBankWrBursts::7             196519                       # Per bank write bursts
system.mem_ctrl.numRdRetry                          0                       # Number of times read queue was full causing retry
system.mem_ctrl.numWrRetry                          0                       # Number of times write queue was full causing retry
system.mem_ctrl.totGap                   1414261320669                       # Total gap between requests
system.mem_ctrl.readPktSize::0                   7600                       # Read request sizes (log2)
system.mem_ctrl.readPktSize::1                   2624                       # Read request sizes (log2)
system.mem_ctrl.readPktSize::2               22744276                       # Read request sizes (log2)
system.mem_ctrl.readPktSize::3                4149117                       # Read request sizes (log2)
system.mem_ctrl.readPktSize::4                      0                       # Read request sizes (log2)
system.mem_ctrl.readPktSize::5               36621430                       # Read request sizes (log2)
system.mem_ctrl.writePktSize::0                   109                       # Write request sizes (log2)
system.mem_ctrl.writePktSize::1                    20                       # Write request sizes (log2)
system.mem_ctrl.writePktSize::2               7324559                       # Write request sizes (log2)
system.mem_ctrl.writePktSize::3                  9933                       # Write request sizes (log2)
system.mem_ctrl.writePktSize::4                     0                       # Write request sizes (log2)
system.mem_ctrl.writePktSize::5                     0                       # Write request sizes (log2)
system.mem_ctrl.rdQLenPdf::0                 19648970                       # What read queue length does an incoming req see
system.mem_ctrl.rdQLenPdf::1                 18420753                       # What read queue length does an incoming req see
system.mem_ctrl.rdQLenPdf::2                 16179555                       # What read queue length does an incoming req see
system.mem_ctrl.rdQLenPdf::3                     4556                       # What read queue length does an incoming req see
system.mem_ctrl.rdQLenPdf::4                        6                       # What read queue length does an incoming req see
system.mem_ctrl.rdQLenPdf::5                        0                       # What read queue length does an incoming req see
system.mem_ctrl.rdQLenPdf::6                        0                       # What read queue length does an incoming req see
system.mem_ctrl.rdQLenPdf::7                        0                       # What read queue length does an incoming req see
system.mem_ctrl.rdQLenPdf::8                        0                       # What read queue length does an incoming req see
system.mem_ctrl.rdQLenPdf::9                        0                       # What read queue length does an incoming req see
system.mem_ctrl.rdQLenPdf::10                       0                       # What read queue length does an incoming req see
system.mem_ctrl.rdQLenPdf::11                       0                       # What read queue length does an incoming req see
system.mem_ctrl.rdQLenPdf::12                       0                       # What read queue length does an incoming req see
system.mem_ctrl.rdQLenPdf::13                       0                       # What read queue length does an incoming req see
system.mem_ctrl.rdQLenPdf::14                       0                       # What read queue length does an incoming req see
system.mem_ctrl.rdQLenPdf::15                       0                       # What read queue length does an incoming req see
system.mem_ctrl.rdQLenPdf::16                       0                       # What read queue length does an incoming req see
system.mem_ctrl.rdQLenPdf::17                       0                       # What read queue length does an incoming req see
system.mem_ctrl.rdQLenPdf::18                       0                       # What read queue length does an incoming req see
system.mem_ctrl.rdQLenPdf::19                       0                       # What read queue length does an incoming req see
system.mem_ctrl.rdQLenPdf::20                       0                       # What read queue length does an incoming req see
system.mem_ctrl.rdQLenPdf::21                       0                       # What read queue length does an incoming req see
system.mem_ctrl.rdQLenPdf::22                       0                       # What read queue length does an incoming req see
system.mem_ctrl.rdQLenPdf::23                       0                       # What read queue length does an incoming req see
system.mem_ctrl.rdQLenPdf::24                       0                       # What read queue length does an incoming req see
system.mem_ctrl.rdQLenPdf::25                       0                       # What read queue length does an incoming req see
system.mem_ctrl.rdQLenPdf::26                       0                       # What read queue length does an incoming req see
system.mem_ctrl.rdQLenPdf::27                       0                       # What read queue length does an incoming req see
system.mem_ctrl.rdQLenPdf::28                       0                       # What read queue length does an incoming req see
system.mem_ctrl.rdQLenPdf::29                       0                       # What read queue length does an incoming req see
system.mem_ctrl.rdQLenPdf::30                       0                       # What read queue length does an incoming req see
system.mem_ctrl.rdQLenPdf::31                       0                       # What read queue length does an incoming req see
system.mem_ctrl.wrQLenPdf::0                        1                       # What write queue length does an incoming req see
system.mem_ctrl.wrQLenPdf::1                        1                       # What write queue length does an incoming req see
system.mem_ctrl.wrQLenPdf::2                        1                       # What write queue length does an incoming req see
system.mem_ctrl.wrQLenPdf::3                        1                       # What write queue length does an incoming req see
system.mem_ctrl.wrQLenPdf::4                        1                       # What write queue length does an incoming req see
system.mem_ctrl.wrQLenPdf::5                        1                       # What write queue length does an incoming req see
system.mem_ctrl.wrQLenPdf::6                        1                       # What write queue length does an incoming req see
system.mem_ctrl.wrQLenPdf::7                        1                       # What write queue length does an incoming req see
system.mem_ctrl.wrQLenPdf::8                        1                       # What write queue length does an incoming req see
system.mem_ctrl.wrQLenPdf::9                        1                       # What write queue length does an incoming req see
system.mem_ctrl.wrQLenPdf::10                       1                       # What write queue length does an incoming req see
system.mem_ctrl.wrQLenPdf::11                       1                       # What write queue length does an incoming req see
system.mem_ctrl.wrQLenPdf::12                       1                       # What write queue length does an incoming req see
system.mem_ctrl.wrQLenPdf::13                       1                       # What write queue length does an incoming req see
system.mem_ctrl.wrQLenPdf::14                       1                       # What write queue length does an incoming req see
system.mem_ctrl.wrQLenPdf::15                       1                       # What write queue length does an incoming req see
system.mem_ctrl.wrQLenPdf::16                       1                       # What write queue length does an incoming req see
system.mem_ctrl.wrQLenPdf::17                  104879                       # What write queue length does an incoming req see
system.mem_ctrl.wrQLenPdf::18                  104886                       # What write queue length does an incoming req see
system.mem_ctrl.wrQLenPdf::19                  104892                       # What write queue length does an incoming req see
system.mem_ctrl.wrQLenPdf::20                  104893                       # What write queue length does an incoming req see
system.mem_ctrl.wrQLenPdf::21                  104893                       # What write queue length does an incoming req see
system.mem_ctrl.wrQLenPdf::22                  104894                       # What write queue length does an incoming req see
system.mem_ctrl.wrQLenPdf::23                  104897                       # What write queue length does an incoming req see
system.mem_ctrl.wrQLenPdf::24                  104894                       # What write queue length does an incoming req see
system.mem_ctrl.wrQLenPdf::25                  104894                       # What write queue length does an incoming req see
system.mem_ctrl.wrQLenPdf::26                  104894                       # What write queue length does an incoming req see
system.mem_ctrl.wrQLenPdf::27                  104894                       # What write queue length does an incoming req see
system.mem_ctrl.wrQLenPdf::28                  104900                       # What write queue length does an incoming req see
system.mem_ctrl.wrQLenPdf::29                  104896                       # What write queue length does an incoming req see
system.mem_ctrl.wrQLenPdf::30                  104893                       # What write queue length does an incoming req see
system.mem_ctrl.wrQLenPdf::31                  104892                       # What write queue length does an incoming req see
system.mem_ctrl.wrQLenPdf::32                  104894                       # What write queue length does an incoming req see
system.mem_ctrl.wrQLenPdf::33                       0                       # What write queue length does an incoming req see
system.mem_ctrl.wrQLenPdf::34                       0                       # What write queue length does an incoming req see
system.mem_ctrl.wrQLenPdf::35                       0                       # What write queue length does an incoming req see
system.mem_ctrl.wrQLenPdf::36                       0                       # What write queue length does an incoming req see
system.mem_ctrl.wrQLenPdf::37                       0                       # What write queue length does an incoming req see
system.mem_ctrl.wrQLenPdf::38                       0                       # What write queue length does an incoming req see
system.mem_ctrl.wrQLenPdf::39                       0                       # What write queue length does an incoming req see
system.mem_ctrl.wrQLenPdf::40                       0                       # What write queue length does an incoming req see
system.mem_ctrl.wrQLenPdf::41                       0                       # What write queue length does an incoming req see
system.mem_ctrl.wrQLenPdf::42                       0                       # What write queue length does an incoming req see
system.mem_ctrl.wrQLenPdf::43                       0                       # What write queue length does an incoming req see
system.mem_ctrl.wrQLenPdf::44                       0                       # What write queue length does an incoming req see
system.mem_ctrl.wrQLenPdf::45                       0                       # What write queue length does an incoming req see
system.mem_ctrl.wrQLenPdf::46                       0                       # What write queue length does an incoming req see
system.mem_ctrl.wrQLenPdf::47                       0                       # What write queue length does an incoming req see
system.mem_ctrl.wrQLenPdf::48                       0                       # What write queue length does an incoming req see
system.mem_ctrl.wrQLenPdf::49                       0                       # What write queue length does an incoming req see
system.mem_ctrl.wrQLenPdf::50                       0                       # What write queue length does an incoming req see
system.mem_ctrl.wrQLenPdf::51                       0                       # What write queue length does an incoming req see
system.mem_ctrl.wrQLenPdf::52                       0                       # What write queue length does an incoming req see
system.mem_ctrl.wrQLenPdf::53                       0                       # What write queue length does an incoming req see
system.mem_ctrl.wrQLenPdf::54                       0                       # What write queue length does an incoming req see
system.mem_ctrl.wrQLenPdf::55                       0                       # What write queue length does an incoming req see
system.mem_ctrl.wrQLenPdf::56                       0                       # What write queue length does an incoming req see
system.mem_ctrl.wrQLenPdf::57                       0                       # What write queue length does an incoming req see
system.mem_ctrl.wrQLenPdf::58                       0                       # What write queue length does an incoming req see
system.mem_ctrl.wrQLenPdf::59                       0                       # What write queue length does an incoming req see
system.mem_ctrl.wrQLenPdf::60                       0                       # What write queue length does an incoming req see
system.mem_ctrl.wrQLenPdf::61                       0                       # What write queue length does an incoming req see
system.mem_ctrl.wrQLenPdf::62                       0                       # What write queue length does an incoming req see
system.mem_ctrl.wrQLenPdf::63                       0                       # What write queue length does an incoming req see
system.mem_ctrl.bytesPerActivate::samples      5134740                       # Bytes accessed per row activation
system.mem_ctrl.bytesPerActivate::mean     348.572125                       # Bytes accessed per row activation
system.mem_ctrl.bytesPerActivate::gmean    244.604940                       # Bytes accessed per row activation
system.mem_ctrl.bytesPerActivate::stdev    197.017262                       # Bytes accessed per row activation
system.mem_ctrl.bytesPerActivate::0-63         823964     16.05%     16.05% # Bytes accessed per row activation
system.mem_ctrl.bytesPerActivate::64-127       284056      5.53%     21.58% # Bytes accessed per row activation
system.mem_ctrl.bytesPerActivate::128-191       325285      6.33%     27.91% # Bytes accessed per row activation
system.mem_ctrl.bytesPerActivate::192-255       299954      5.84%     33.76% # Bytes accessed per row activation
system.mem_ctrl.bytesPerActivate::256-319       229750      4.47%     38.23% # Bytes accessed per row activation
system.mem_ctrl.bytesPerActivate::320-383       103499      2.02%     40.25% # Bytes accessed per row activation
system.mem_ctrl.bytesPerActivate::384-447       174651      3.40%     43.65% # Bytes accessed per row activation
system.mem_ctrl.bytesPerActivate::448-511       237808      4.63%     48.28% # Bytes accessed per row activation
system.mem_ctrl.bytesPerActivate::512-575      2655773     51.72%    100.00% # Bytes accessed per row activation
system.mem_ctrl.bytesPerActivate::total       5134740                       # Bytes accessed per row activation
system.mem_ctrl.rdPerTurnAround::samples       104892                       # Reads before turning the bus around for writes
system.mem_ctrl.rdPerTurnAround::mean      517.232601                       # Reads before turning the bus around for writes
system.mem_ctrl.rdPerTurnAround::gmean     262.858414                       # Reads before turning the bus around for writes
system.mem_ctrl.rdPerTurnAround::stdev   63387.164348                       # Reads before turning the bus around for writes
system.mem_ctrl.rdPerTurnAround::0-1.04858e+06       104891    100.00%    100.00% # Reads before turning the bus around for writes
system.mem_ctrl.rdPerTurnAround::1.99229e+07-2.09715e+07            1      0.00%    100.00% # Reads before turning the bus around for writes
system.mem_ctrl.rdPerTurnAround::total         104892                       # Reads before turning the bus around for writes
system.mem_ctrl.wrPerTurnAround::samples       104892                       # Writes before turning the bus around for reads
system.mem_ctrl.wrPerTurnAround::mean              16                       # Writes before turning the bus around for reads
system.mem_ctrl.wrPerTurnAround::gmean      16.000000                       # Writes before turning the bus around for reads
system.mem_ctrl.wrPerTurnAround::16            104892    100.00%    100.00% # Writes before turning the bus around for reads
system.mem_ctrl.wrPerTurnAround::total         104892                       # Writes before turning the bus around for reads
system.mem_ctrl.totQLat                  853267689307                       # Total ticks spent queuing
system.mem_ctrl.totMemAccLat             2073979089307                       # Total ticks spent from burst creation until serviced by the DRAM
system.mem_ctrl.totBusLat                406903800000                       # Total ticks spent in databus transfers
system.mem_ctrl.avgQLat                      15727.32                       # Average queueing delay per DRAM burst
system.mem_ctrl.avgBusLat                     7500.00                       # Average bus latency per DRAM burst
system.mem_ctrl.avgMemAccLat                 38227.32                       # Average memory access latency per DRAM burst
system.mem_ctrl.avgRdBW                       1227.58                       # Average DRAM read bandwidth in MiByte/s
system.mem_ctrl.avgWrBW                         37.97                       # Average achieved write bandwidth in MiByte/s
system.mem_ctrl.avgRdBWSys                     916.43                       # Average system read bandwidth in MiByte/s
system.mem_ctrl.avgWrBWSys                      20.77                       # Average system write bandwidth in MiByte/s
system.mem_ctrl.peakBW                        4266.00                       # Theoretical peak bandwidth in MiByte/s
system.mem_ctrl.busUtil                         29.67                       # Data bus utilization in percentage
system.mem_ctrl.busUtilRead                     28.78                       # Data bus utilization in percentage for reads
system.mem_ctrl.busUtilWrite                     0.89                       # Data bus utilization in percentage for writes
system.mem_ctrl.avgRdQLen                        2.66                       # Average read queue length when enqueuing
system.mem_ctrl.avgWrQLen                       25.27                       # Average write queue length when enqueuing
system.mem_ctrl.readRowHits                  49566267                       # Number of row buffer hits during reads
system.mem_ctrl.writeRowHits                  1231103                       # Number of row buffer hits during writes
system.mem_ctrl.readRowHitRate                  91.36                       # Row buffer hit rate for reads
system.mem_ctrl.writeRowHitRate                 73.35                       # Row buffer hit rate for writes
system.mem_ctrl.avgGap                       26913.22                       # Average gap between requests
system.mem_ctrl.pageHitRate                     90.82                       # Row buffer hit rate, read and write combined
system.mem_ctrl_0.actEnergy              15619546271.028000                       # Energy for activate commands per rank (pJ)
system.mem_ctrl_0.preEnergy              5502239503.488001                       # Energy for precharge commands per rank (pJ)
system.mem_ctrl_0.readEnergy             93189951200.572800                       # Energy for read commands per rank (pJ)
system.mem_ctrl_0.writeEnergy            2588016259.584000                       # Energy for write commands per rank (pJ)
system.mem_ctrl_0.refreshEnergy          10110662519.579998                       # Energy for refresh commands per rank (pJ)
system.mem_ctrl_0.actBackEnergy          39917381434.685989                       # Energy for active background per rank (pJ)
system.mem_ctrl_0.preBackEnergy          476784561.052800                       # Energy for precharge background per rank (pJ)
system.mem_ctrl_0.actPowerDownEnergy     4887098836.945920                       # Energy for active power-down per rank (pJ)
system.mem_ctrl_0.prePowerDownEnergy     2116142.632800                       # Energy for precharge power-down per rank (pJ)
system.mem_ctrl_0.selfRefreshEnergy                 0                       # Energy for self refresh per rank (pJ)
system.mem_ctrl_0.totalEnergy            172293796729.570312                       # Total energy per rank (pJ)
system.mem_ctrl_0.averagePower             121.825998                       # Core power per rank (mW)
system.mem_ctrl_0.totalIdleTime          416605801721                       # Total Idle time Per DRAM Rank
system.mem_ctrl_0.memoryStateTime::IDLE     879577833                       # Time in different power states
system.mem_ctrl_0.memoryStateTime::REF    47324030000                       # Time in different power states
system.mem_ctrl_0.memoryStateTime::SREF             0                       # Time in different power states
system.mem_ctrl_0.memoryStateTime::PRE_PDN   1037401695                       # Time in different power states
system.mem_ctrl_0.memoryStateTime::ACT   949451913446                       # Time in different power states
system.mem_ctrl_0.memoryStateTime::ACT_PDN 415568400026                       # Time in different power states
system.pwrStateResidencyTicks::UNDEFINED 1414261323000                       # Cumulative time (in ticks) in various power states
system.cpu.branchPred.lookups                      80                       # Number of BP lookups
system.cpu.branchPred.condPredicted                80                       # Number of conditional branches predicted
system.cpu.branchPred.condIncorrect                32                       # Number of conditional branches incorrect
system.cpu.branchPred.BTBLookups                   46                       # Number of BTB lookups
system.cpu.branchPred.BTBHits                       0                       # Number of BTB hits
system.cpu.branchPred.BTBCorrect                    0                       # Number of correct BTB predictions (this stat may not work properly.
system.cpu.branchPred.BTBHitPct              0.000000                       # BTB Hit Percentage
system.cpu.branchPred.usedRAS                       0                       # Number of times the RAS was used to get a target.
system.cpu.branchPred.RASInCorrect                  0                       # Number of incorrect RAS predictions.
system.cpu.branchPred.indirectLookups              46                       # Number of indirect predictor lookups.
system.cpu.branchPred.indirectHits                  0                       # Number of indirect target hits.
system.cpu.branchPred.indirectMisses               46                       # Number of indirect misses.
system.cpu.branchPredindirectMispredicted           17                       # Number of mispredicted indirect branches.
system.cpu.dtb.walker.pwrStateResidencyTicks::UNDEFINED 1414261323000                       # Cumulative time (in ticks) in various power states
system.cpu.dtb.rdAccesses                    26907748                       # TLB accesses on read requests
system.cpu.dtb.wrAccesses                     7334793                       # TLB accesses on write requests
system.cpu.dtb.rdMisses                          2852                       # TLB misses on read requests
system.cpu.dtb.wrMisses                        116850                       # TLB misses on write requests
system.cpu.apic_clk_domain.clock                 5328                       # Clock period in ticks
system.cpu.interrupts.pwrStateResidencyTicks::UNDEFINED 1414261323000                       # Cumulative time (in ticks) in various power states
system.cpu.itb.walker.pwrStateResidencyTicks::UNDEFINED 1414261323000                       # Cumulative time (in ticks) in various power states
system.cpu.itb.rdAccesses                           0                       # TLB accesses on read requests
system.cpu.itb.wrAccesses                    18310715                       # TLB accesses on write requests
system.cpu.itb.rdMisses                             0                       # TLB misses on read requests
system.cpu.itb.wrMisses                            90                       # TLB misses on write requests
system.cpu.workload.numSyscalls                    33                       # Number of system calls
system.cpu.pwrStateResidencyTicks::ON    1414261323000                       # Cumulative time (in ticks) in various power states
system.cpu.numCycles                       4247031000                       # number of cpu cycles simulated
system.cpu.numWorkItemsStarted                      0                       # number of work items this cpu started
system.cpu.numWorkItemsCompleted                    0                       # number of work items this cpu completed
system.cpu.committedInsts                    47700244                       # Number of instructions committed
system.cpu.committedOps                      82046706                       # Number of ops (including micro ops) committed
system.cpu.discardedOps                      18240416                       # Number of ops (including micro ops) which were discarded before commit
system.cpu.numFetchSuspends                         0                       # Number of times Execute suspended instruction fetching
system.cpu.cpi                              89.035834                       # CPI: cycles per instruction
system.cpu.ipc                               0.011231                       # IPC: instructions per cycle
system.cpu.op_class_0::No_OpClass                1287      0.00%      0.00% # Class of committed instruction
system.cpu.op_class_0::IntAlu                50852257     61.98%     61.98% # Class of committed instruction
system.cpu.op_class_0::IntMult                   1192      0.00%     61.98% # Class of committed instruction
system.cpu.op_class_0::IntDiv                    1131      0.00%     61.98% # Class of committed instruction
system.cpu.op_class_0::FloatAdd                  2227      0.00%     61.99% # Class of committed instruction
system.cpu.op_class_0::FloatCmp                     0      0.00%     61.99% # Class of committed instruction
system.cpu.op_class_0::FloatCvt                     0      0.00%     61.99% # Class of committed instruction
system.cpu.op_class_0::FloatMult                    0      0.00%     61.99% # Class of committed instruction
system.cpu.op_class_0::FloatMultAcc                 0      0.00%     61.99% # Class of committed instruction
system.cpu.op_class_0::FloatDiv                     0      0.00%     61.99% # Class of committed instruction
system.cpu.op_class_0::FloatMisc                    0      0.00%     61.99% # Class of committed instruction
system.cpu.op_class_0::FloatSqrt                    0      0.00%     61.99% # Class of committed instruction
system.cpu.op_class_0::SimdAdd                      0      0.00%     61.99% # Class of committed instruction
system.cpu.op_class_0::SimdAddAcc                   0      0.00%     61.99% # Class of committed instruction
system.cpu.op_class_0::SimdAlu                      0      0.00%     61.99% # Class of committed instruction
system.cpu.op_class_0::SimdCmp                      0      0.00%     61.99% # Class of committed instruction
system.cpu.op_class_0::SimdCvt                      0      0.00%     61.99% # Class of committed instruction
system.cpu.op_class_0::SimdMisc                     0      0.00%     61.99% # Class of committed instruction
system.cpu.op_class_0::SimdMult                     0      0.00%     61.99% # Class of committed instruction
system.cpu.op_class_0::SimdMultAcc                  0      0.00%     61.99% # Class of committed instruction
system.cpu.op_class_0::SimdShift                    0      0.00%     61.99% # Class of committed instruction
system.cpu.op_class_0::SimdShiftAcc                 0      0.00%     61.99% # Class of committed instruction
system.cpu.op_class_0::SimdSqrt                     0      0.00%     61.99% # Class of committed instruction
system.cpu.op_class_0::SimdFloatAdd                 0      0.00%     61.99% # Class of committed instruction
system.cpu.op_class_0::SimdFloatAlu                 0      0.00%     61.99% # Class of committed instruction
system.cpu.op_class_0::SimdFloatCmp                 0      0.00%     61.99% # Class of committed instruction
system.cpu.op_class_0::SimdFloatCvt                 0      0.00%     61.99% # Class of committed instruction
system.cpu.op_class_0::SimdFloatDiv                 0      0.00%     61.99% # Class of committed instruction
system.cpu.op_class_0::SimdFloatMisc                0      0.00%     61.99% # Class of committed instruction
system.cpu.op_class_0::SimdFloatMult                0      0.00%     61.99% # Class of committed instruction
system.cpu.op_class_0::SimdFloatMultAcc             0      0.00%     61.99% # Class of committed instruction
system.cpu.op_class_0::SimdFloatSqrt                0      0.00%     61.99% # Class of committed instruction
system.cpu.op_class_0::MemRead               23853209     29.07%     91.06% # Class of committed instruction
system.cpu.op_class_0::MemWrite               7334237      8.94%    100.00% # Class of committed instruction
system.cpu.op_class_0::FloatMemRead               782      0.00%    100.00% # Class of committed instruction
system.cpu.op_class_0::FloatMemWrite              384      0.00%    100.00% # Class of committed instruction
system.cpu.op_class_0::IprAccess                    0      0.00%    100.00% # Class of committed instruction
system.cpu.op_class_0::InstPrefetch                 0      0.00%    100.00% # Class of committed instruction
system.cpu.op_class_0::total                 82046706                       # Class of committed instruction
system.cpu.tickCycles                       256641404                       # Number of cycles that the object actually ticked
system.cpu.idleCycles                      3990389596                       # Total number of cycles that the object has spent stopped
system.membus.snoop_filter.tot_requests             0                       # Total number of requests made to the snoop filter.
system.membus.snoop_filter.hit_single_requests            0                       # Number of requests hitting in the snoop filter with a single holder of the requested data.
system.membus.snoop_filter.hit_multi_requests            0                       # Number of requests hitting in the snoop filter with multiple (>1) holders of the requested data.
system.membus.snoop_filter.tot_snoops               0                       # Total number of snoops made to the snoop filter.
system.membus.snoop_filter.hit_single_snoops            0                       # Number of snoops hitting in the snoop filter with a single holder of the requested data.
system.membus.snoop_filter.hit_multi_snoops            0                       # Number of snoops hitting in the snoop filter with multiple (>1) holders of the requested data.
system.membus.pwrStateResidencyTicks::UNDEFINED 1414261323000                       # Cumulative time (in ticks) in various power states
system.membus.trans_dist::ReadReq            45214322                       # Transaction distribution
system.membus.trans_dist::ReadResp           45214321                       # Transaction distribution
system.membus.trans_dist::WriteReq            7334621                       # Transaction distribution
system.membus.trans_dist::WriteResp           7334621                       # Transaction distribution
system.membus.pkt_count_system.cpu.fetch1.icache_port::system.mem_ctrl.port     36621429                       # Packet count per connected master and slave (bytes)
system.membus.pkt_count_system.cpu.fetch1.icache_port::total     36621429                       # Packet count per connected master and slave (bytes)
system.membus.pkt_count_system.cpu.execute.dcache_port::system.mem_ctrl.port     68476456                       # Packet count per connected master and slave (bytes)
system.membus.pkt_count_system.cpu.execute.dcache_port::total     68476456                       # Packet count per connected master and slave (bytes)
system.membus.pkt_count::total              105097885                       # Packet count per connected master and slave (bytes)
system.membus.pkt_size_system.cpu.fetch1.icache_port::system.mem_ctrl.port   1171885696                       # Cumulative packet size per connected master and slave (bytes)
system.membus.pkt_size_system.cpu.fetch1.icache_port::total   1171885696                       # Cumulative packet size per connected master and slave (bytes)
system.membus.pkt_size_system.cpu.execute.dcache_port::system.mem_ctrl.port    153560705                       # Cumulative packet size per connected master and slave (bytes)
system.membus.pkt_size_system.cpu.execute.dcache_port::total    153560705                       # Cumulative packet size per connected master and slave (bytes)
system.membus.pkt_size::total              1325446401                       # Cumulative packet size per connected master and slave (bytes)
system.membus.snoops                                0                       # Total snoops (count)
system.membus.snoopTraffic                          0                       # Total snoop traffic (bytes)
system.membus.snoop_fanout::samples          52548943                       # Request fanout histogram
system.membus.snoop_fanout::mean                    0                       # Request fanout histogram
system.membus.snoop_fanout::stdev                   0                       # Request fanout histogram
system.membus.snoop_fanout::underflows              0      0.00%      0.00% # Request fanout histogram
system.membus.snoop_fanout::0                52548943    100.00%    100.00% # Request fanout histogram
system.membus.snoop_fanout::1                       0      0.00%    100.00% # Request fanout histogram
system.membus.snoop_fanout::overflows               0      0.00%    100.00% # Request fanout histogram
system.membus.snoop_fanout::min_value               0                       # Request fanout histogram
system.membus.snoop_fanout::max_value               0                       # Request fanout histogram
system.membus.snoop_fanout::total            52548943                       # Request fanout histogram
system.membus.reqLayer2.occupancy         19941226812                       # Layer occupancy (ticks)
system.membus.reqLayer2.utilization               1.4                       # Layer utilization (%)
system.membus.respLayer0.occupancy        33320866887                       # Layer occupancy (ticks)
system.membus.respLayer0.utilization              2.4                       # Layer utilization (%)
system.membus.respLayer1.occupancy        29566245315                       # Layer occupancy (ticks)
system.membus.respLayer1.utilization              2.1                       # Layer utilization (%)

---------- End Simulation Statistics   ----------
