
---------- Begin Simulation Statistics ----------
sim_seconds                                  0.014863                       # Number of seconds simulated
sim_ticks                                 14863446500                       # Number of ticks simulated
final_tick                                14863446500                       # Number of ticks from beginning of simulation (restored from checkpoints and never reset)
sim_freq                                 1000000000000                       # Frequency of simulated ticks
host_inst_rate                                  51265                       # Simulator instruction rate (inst/s)
host_op_rate                                    90273                       # Simulator op (including micro ops) rate (op/s)
host_tick_rate                             1342974609                       # Simulator tick rate (ticks/s)
host_mem_usage                                 668420                       # Number of bytes of host memory used
host_seconds                                    11.07                       # Real time elapsed on the host
sim_insts                                      567373                       # Number of instructions simulated
sim_ops                                        999102                       # Number of ops (including micro ops) simulated
system.clk_domain.voltage_domain.voltage            1                       # Voltage in Volts
system.clk_domain.clock                           500                       # Clock period in ticks
system.mem_ctrl.pwrStateResidencyTicks::UNDEFINED  14863446500                       # Cumulative time (in ticks) in various power states
system.mem_ctrl.bytes_read::cpu.inst         13890112                       # Number of bytes read from this memory
system.mem_ctrl.bytes_read::cpu.data          1349351                       # Number of bytes read from this memory
system.mem_ctrl.bytes_read::total            15239463                       # Number of bytes read from this memory
system.mem_ctrl.bytes_inst_read::cpu.inst     13890112                       # Number of instructions bytes read from this memory
system.mem_ctrl.bytes_inst_read::total       13890112                       # Number of instructions bytes read from this memory
system.mem_ctrl.bytes_written::cpu.data        343939                       # Number of bytes written to this memory
system.mem_ctrl.bytes_written::total           343939                       # Number of bytes written to this memory
system.mem_ctrl.num_reads::cpu.inst            217033                       # Number of read requests responded to by this memory
system.mem_ctrl.num_reads::cpu.data            281368                       # Number of read requests responded to by this memory
system.mem_ctrl.num_reads::total               498401                       # Number of read requests responded to by this memory
system.mem_ctrl.num_writes::cpu.data            76154                       # Number of write requests responded to by this memory
system.mem_ctrl.num_writes::total               76154                       # Number of write requests responded to by this memory
system.mem_ctrl.bw_read::cpu.inst           934514885                       # Total read bandwidth from this memory (bytes/s)
system.mem_ctrl.bw_read::cpu.data            90783184                       # Total read bandwidth from this memory (bytes/s)
system.mem_ctrl.bw_read::total             1025298069                       # Total read bandwidth from this memory (bytes/s)
system.mem_ctrl.bw_inst_read::cpu.inst      934514885                       # Instruction read bandwidth from this memory (bytes/s)
system.mem_ctrl.bw_inst_read::total         934514885                       # Instruction read bandwidth from this memory (bytes/s)
system.mem_ctrl.bw_write::cpu.data           23139922                       # Write bandwidth from this memory (bytes/s)
system.mem_ctrl.bw_write::total              23139922                       # Write bandwidth from this memory (bytes/s)
system.mem_ctrl.bw_total::cpu.inst          934514885                       # Total bandwidth to/from this memory (bytes/s)
system.mem_ctrl.bw_total::cpu.data          113923107                       # Total bandwidth to/from this memory (bytes/s)
system.mem_ctrl.bw_total::total            1048437992                       # Total bandwidth to/from this memory (bytes/s)
system.mem_ctrl.readReqs                       498402                       # Number of read requests accepted
system.mem_ctrl.writeReqs                       76154                       # Number of write requests accepted
system.mem_ctrl.readBursts                     498402                       # Number of DRAM read bursts, including those serviced by the write queue
system.mem_ctrl.writeBursts                     76154                       # Number of DRAM write bursts, including those merged in the write queue
system.mem_ctrl.bytesReadDRAM                26655488                       # Total number of bytes read from DRAM
system.mem_ctrl.bytesReadWrQ                  5242240                       # Total number of bytes read from write queue
system.mem_ctrl.bytesWritten                   601152                       # Total number of bytes written to DRAM
system.mem_ctrl.bytesReadSys                 15239527                       # Total read bytes from the system interface side
system.mem_ctrl.bytesWrittenSys                343939                       # Total written bytes from the system interface side
system.mem_ctrl.servicedByWrQ                   81910                       # Number of DRAM read bursts serviced by the write queue
system.mem_ctrl.mergedWrBursts                  66733                       # Number of DRAM write bursts merged with an existing one
system.mem_ctrl.neitherReadNorWriteReqs             0                       # Number of requests that are neither read nor write
system.mem_ctrl.perBankRdBursts::0             169523                       # Per bank write bursts
system.mem_ctrl.perBankRdBursts::1              41320                       # Per bank write bursts
system.mem_ctrl.perBankRdBursts::2               3793                       # Per bank write bursts
system.mem_ctrl.perBankRdBursts::3               2830                       # Per bank write bursts
system.mem_ctrl.perBankRdBursts::4               3151                       # Per bank write bursts
system.mem_ctrl.perBankRdBursts::5              30500                       # Per bank write bursts
system.mem_ctrl.perBankRdBursts::6             132441                       # Per bank write bursts
system.mem_ctrl.perBankRdBursts::7              15730                       # Per bank write bursts
system.mem_ctrl.perBankRdBursts::8               2097                       # Per bank write bursts
system.mem_ctrl.perBankRdBursts::9               1978                       # Per bank write bursts
system.mem_ctrl.perBankRdBursts::10              3123                       # Per bank write bursts
system.mem_ctrl.perBankRdBursts::11              2571                       # Per bank write bursts
system.mem_ctrl.perBankRdBursts::12               402                       # Per bank write bursts
system.mem_ctrl.perBankRdBursts::13               995                       # Per bank write bursts
system.mem_ctrl.perBankRdBursts::14              1356                       # Per bank write bursts
system.mem_ctrl.perBankRdBursts::15              4682                       # Per bank write bursts
system.mem_ctrl.perBankWrBursts::0               1616                       # Per bank write bursts
system.mem_ctrl.perBankWrBursts::1               1750                       # Per bank write bursts
system.mem_ctrl.perBankWrBursts::2               1826                       # Per bank write bursts
system.mem_ctrl.perBankWrBursts::3               1638                       # Per bank write bursts
system.mem_ctrl.perBankWrBursts::4                 25                       # Per bank write bursts
system.mem_ctrl.perBankWrBursts::5                120                       # Per bank write bursts
system.mem_ctrl.perBankWrBursts::6                724                       # Per bank write bursts
system.mem_ctrl.perBankWrBursts::7                 63                       # Per bank write bursts
system.mem_ctrl.perBankWrBursts::8                 33                       # Per bank write bursts
system.mem_ctrl.perBankWrBursts::9                112                       # Per bank write bursts
system.mem_ctrl.perBankWrBursts::10               112                       # Per bank write bursts
system.mem_ctrl.perBankWrBursts::11                80                       # Per bank write bursts
system.mem_ctrl.perBankWrBursts::12                 0                       # Per bank write bursts
system.mem_ctrl.perBankWrBursts::13                 5                       # Per bank write bursts
system.mem_ctrl.perBankWrBursts::14                44                       # Per bank write bursts
system.mem_ctrl.perBankWrBursts::15              1245                       # Per bank write bursts
system.mem_ctrl.numRdRetry                          0                       # Number of times read queue was full causing retry
system.mem_ctrl.numWrRetry                          0                       # Number of times write queue was full causing retry
system.mem_ctrl.totGap                    14863443000                       # Total gap between requests
system.mem_ctrl.readPktSize::0                   7593                       # Read request sizes (log2)
system.mem_ctrl.readPktSize::1                   2619                       # Read request sizes (log2)
system.mem_ctrl.readPktSize::2                 208178                       # Read request sizes (log2)
system.mem_ctrl.readPktSize::3                  62978                       # Read request sizes (log2)
system.mem_ctrl.readPktSize::4                      0                       # Read request sizes (log2)
system.mem_ctrl.readPktSize::5                      0                       # Read request sizes (log2)
system.mem_ctrl.readPktSize::6                 217034                       # Read request sizes (log2)
system.mem_ctrl.writePktSize::0                   105                       # Write request sizes (log2)
system.mem_ctrl.writePktSize::1                    19                       # Write request sizes (log2)
system.mem_ctrl.writePktSize::2                 66111                       # Write request sizes (log2)
system.mem_ctrl.writePktSize::3                  9919                       # Write request sizes (log2)
system.mem_ctrl.writePktSize::4                     0                       # Write request sizes (log2)
system.mem_ctrl.writePktSize::5                     0                       # Write request sizes (log2)
system.mem_ctrl.writePktSize::6                     0                       # Write request sizes (log2)
system.mem_ctrl.rdQLenPdf::0                   244942                       # What read queue length does an incoming req see
system.mem_ctrl.rdQLenPdf::1                   167659                       # What read queue length does an incoming req see
system.mem_ctrl.rdQLenPdf::2                     3891                       # What read queue length does an incoming req see
system.mem_ctrl.rdQLenPdf::3                        0                       # What read queue length does an incoming req see
system.mem_ctrl.rdQLenPdf::4                        0                       # What read queue length does an incoming req see
system.mem_ctrl.rdQLenPdf::5                        0                       # What read queue length does an incoming req see
system.mem_ctrl.rdQLenPdf::6                        0                       # What read queue length does an incoming req see
system.mem_ctrl.rdQLenPdf::7                        0                       # What read queue length does an incoming req see
system.mem_ctrl.rdQLenPdf::8                        0                       # What read queue length does an incoming req see
system.mem_ctrl.rdQLenPdf::9                        0                       # What read queue length does an incoming req see
system.mem_ctrl.rdQLenPdf::10                       0                       # What read queue length does an incoming req see
system.mem_ctrl.rdQLenPdf::11                       0                       # What read queue length does an incoming req see
system.mem_ctrl.rdQLenPdf::12                       0                       # What read queue length does an incoming req see
system.mem_ctrl.rdQLenPdf::13                       0                       # What read queue length does an incoming req see
system.mem_ctrl.rdQLenPdf::14                       0                       # What read queue length does an incoming req see
system.mem_ctrl.rdQLenPdf::15                       0                       # What read queue length does an incoming req see
system.mem_ctrl.rdQLenPdf::16                       0                       # What read queue length does an incoming req see
system.mem_ctrl.rdQLenPdf::17                       0                       # What read queue length does an incoming req see
system.mem_ctrl.rdQLenPdf::18                       0                       # What read queue length does an incoming req see
system.mem_ctrl.rdQLenPdf::19                       0                       # What read queue length does an incoming req see
system.mem_ctrl.rdQLenPdf::20                       0                       # What read queue length does an incoming req see
system.mem_ctrl.rdQLenPdf::21                       0                       # What read queue length does an incoming req see
system.mem_ctrl.rdQLenPdf::22                       0                       # What read queue length does an incoming req see
system.mem_ctrl.rdQLenPdf::23                       0                       # What read queue length does an incoming req see
system.mem_ctrl.rdQLenPdf::24                       0                       # What read queue length does an incoming req see
system.mem_ctrl.rdQLenPdf::25                       0                       # What read queue length does an incoming req see
system.mem_ctrl.rdQLenPdf::26                       0                       # What read queue length does an incoming req see
system.mem_ctrl.rdQLenPdf::27                       0                       # What read queue length does an incoming req see
system.mem_ctrl.rdQLenPdf::28                       0                       # What read queue length does an incoming req see
system.mem_ctrl.rdQLenPdf::29                       0                       # What read queue length does an incoming req see
system.mem_ctrl.rdQLenPdf::30                       0                       # What read queue length does an incoming req see
system.mem_ctrl.rdQLenPdf::31                       0                       # What read queue length does an incoming req see
system.mem_ctrl.wrQLenPdf::0                        1                       # What write queue length does an incoming req see
system.mem_ctrl.wrQLenPdf::1                        1                       # What write queue length does an incoming req see
system.mem_ctrl.wrQLenPdf::2                        1                       # What write queue length does an incoming req see
system.mem_ctrl.wrQLenPdf::3                        1                       # What write queue length does an incoming req see
system.mem_ctrl.wrQLenPdf::4                        1                       # What write queue length does an incoming req see
system.mem_ctrl.wrQLenPdf::5                        1                       # What write queue length does an incoming req see
system.mem_ctrl.wrQLenPdf::6                        1                       # What write queue length does an incoming req see
system.mem_ctrl.wrQLenPdf::7                        1                       # What write queue length does an incoming req see
system.mem_ctrl.wrQLenPdf::8                        1                       # What write queue length does an incoming req see
system.mem_ctrl.wrQLenPdf::9                        1                       # What write queue length does an incoming req see
system.mem_ctrl.wrQLenPdf::10                       1                       # What write queue length does an incoming req see
system.mem_ctrl.wrQLenPdf::11                       1                       # What write queue length does an incoming req see
system.mem_ctrl.wrQLenPdf::12                       1                       # What write queue length does an incoming req see
system.mem_ctrl.wrQLenPdf::13                       1                       # What write queue length does an incoming req see
system.mem_ctrl.wrQLenPdf::14                       1                       # What write queue length does an incoming req see
system.mem_ctrl.wrQLenPdf::15                       1                       # What write queue length does an incoming req see
system.mem_ctrl.wrQLenPdf::16                       1                       # What write queue length does an incoming req see
system.mem_ctrl.wrQLenPdf::17                     581                       # What write queue length does an incoming req see
system.mem_ctrl.wrQLenPdf::18                     586                       # What write queue length does an incoming req see
system.mem_ctrl.wrQLenPdf::19                     588                       # What write queue length does an incoming req see
system.mem_ctrl.wrQLenPdf::20                     591                       # What write queue length does an incoming req see
system.mem_ctrl.wrQLenPdf::21                     588                       # What write queue length does an incoming req see
system.mem_ctrl.wrQLenPdf::22                     588                       # What write queue length does an incoming req see
system.mem_ctrl.wrQLenPdf::23                     588                       # What write queue length does an incoming req see
system.mem_ctrl.wrQLenPdf::24                     588                       # What write queue length does an incoming req see
system.mem_ctrl.wrQLenPdf::25                     590                       # What write queue length does an incoming req see
system.mem_ctrl.wrQLenPdf::26                     589                       # What write queue length does an incoming req see
system.mem_ctrl.wrQLenPdf::27                     589                       # What write queue length does an incoming req see
system.mem_ctrl.wrQLenPdf::28                     589                       # What write queue length does an incoming req see
system.mem_ctrl.wrQLenPdf::29                     588                       # What write queue length does an incoming req see
system.mem_ctrl.wrQLenPdf::30                     587                       # What write queue length does an incoming req see
system.mem_ctrl.wrQLenPdf::31                     587                       # What write queue length does an incoming req see
system.mem_ctrl.wrQLenPdf::32                     587                       # What write queue length does an incoming req see
system.mem_ctrl.wrQLenPdf::33                       0                       # What write queue length does an incoming req see
system.mem_ctrl.wrQLenPdf::34                       0                       # What write queue length does an incoming req see
system.mem_ctrl.wrQLenPdf::35                       0                       # What write queue length does an incoming req see
system.mem_ctrl.wrQLenPdf::36                       0                       # What write queue length does an incoming req see
system.mem_ctrl.wrQLenPdf::37                       0                       # What write queue length does an incoming req see
system.mem_ctrl.wrQLenPdf::38                       0                       # What write queue length does an incoming req see
system.mem_ctrl.wrQLenPdf::39                       0                       # What write queue length does an incoming req see
system.mem_ctrl.wrQLenPdf::40                       0                       # What write queue length does an incoming req see
system.mem_ctrl.wrQLenPdf::41                       0                       # What write queue length does an incoming req see
system.mem_ctrl.wrQLenPdf::42                       0                       # What write queue length does an incoming req see
system.mem_ctrl.wrQLenPdf::43                       0                       # What write queue length does an incoming req see
system.mem_ctrl.wrQLenPdf::44                       0                       # What write queue length does an incoming req see
system.mem_ctrl.wrQLenPdf::45                       0                       # What write queue length does an incoming req see
system.mem_ctrl.wrQLenPdf::46                       0                       # What write queue length does an incoming req see
system.mem_ctrl.wrQLenPdf::47                       0                       # What write queue length does an incoming req see
system.mem_ctrl.wrQLenPdf::48                       0                       # What write queue length does an incoming req see
system.mem_ctrl.wrQLenPdf::49                       0                       # What write queue length does an incoming req see
system.mem_ctrl.wrQLenPdf::50                       0                       # What write queue length does an incoming req see
system.mem_ctrl.wrQLenPdf::51                       0                       # What write queue length does an incoming req see
system.mem_ctrl.wrQLenPdf::52                       0                       # What write queue length does an incoming req see
system.mem_ctrl.wrQLenPdf::53                       0                       # What write queue length does an incoming req see
system.mem_ctrl.wrQLenPdf::54                       0                       # What write queue length does an incoming req see
system.mem_ctrl.wrQLenPdf::55                       0                       # What write queue length does an incoming req see
system.mem_ctrl.wrQLenPdf::56                       0                       # What write queue length does an incoming req see
system.mem_ctrl.wrQLenPdf::57                       0                       # What write queue length does an incoming req see
system.mem_ctrl.wrQLenPdf::58                       0                       # What write queue length does an incoming req see
system.mem_ctrl.wrQLenPdf::59                       0                       # What write queue length does an incoming req see
system.mem_ctrl.wrQLenPdf::60                       0                       # What write queue length does an incoming req see
system.mem_ctrl.wrQLenPdf::61                       0                       # What write queue length does an incoming req see
system.mem_ctrl.wrQLenPdf::62                       0                       # What write queue length does an incoming req see
system.mem_ctrl.wrQLenPdf::63                       0                       # What write queue length does an incoming req see
system.mem_ctrl.bytesPerActivate::samples        48122                       # Bytes accessed per row activation
system.mem_ctrl.bytesPerActivate::mean     566.332571                       # Bytes accessed per row activation
system.mem_ctrl.bytesPerActivate::gmean    335.716011                       # Bytes accessed per row activation
system.mem_ctrl.bytesPerActivate::stdev    427.982106                       # Bytes accessed per row activation
system.mem_ctrl.bytesPerActivate::0-127         13702     28.47%     28.47% # Bytes accessed per row activation
system.mem_ctrl.bytesPerActivate::128-255         3222      6.70%     35.17% # Bytes accessed per row activation
system.mem_ctrl.bytesPerActivate::256-383         4013      8.34%     43.51% # Bytes accessed per row activation
system.mem_ctrl.bytesPerActivate::384-511         3613      7.51%     51.02% # Bytes accessed per row activation
system.mem_ctrl.bytesPerActivate::512-639          609      1.27%     52.28% # Bytes accessed per row activation
system.mem_ctrl.bytesPerActivate::640-767          644      1.34%     53.62% # Bytes accessed per row activation
system.mem_ctrl.bytesPerActivate::768-895         1144      2.38%     56.00% # Bytes accessed per row activation
system.mem_ctrl.bytesPerActivate::896-1023         1637      3.40%     59.40% # Bytes accessed per row activation
system.mem_ctrl.bytesPerActivate::1024-1151        19538     40.60%    100.00% # Bytes accessed per row activation
system.mem_ctrl.bytesPerActivate::total         48122                       # Bytes accessed per row activation
system.mem_ctrl.rdPerTurnAround::samples          587                       # Reads before turning the bus around for writes
system.mem_ctrl.rdPerTurnAround::mean      708.531516                       # Reads before turning the bus around for writes
system.mem_ctrl.rdPerTurnAround::gmean     259.680611                       # Reads before turning the bus around for writes
system.mem_ctrl.rdPerTurnAround::stdev    5962.302287                       # Reads before turning the bus around for writes
system.mem_ctrl.rdPerTurnAround::0-8191           584     99.49%     99.49% # Reads before turning the bus around for writes
system.mem_ctrl.rdPerTurnAround::16384-24575            1      0.17%     99.66% # Reads before turning the bus around for writes
system.mem_ctrl.rdPerTurnAround::40960-49151            1      0.17%     99.83% # Reads before turning the bus around for writes
system.mem_ctrl.rdPerTurnAround::131072-139263            1      0.17%    100.00% # Reads before turning the bus around for writes
system.mem_ctrl.rdPerTurnAround::total            587                       # Reads before turning the bus around for writes
system.mem_ctrl.wrPerTurnAround::samples          587                       # Writes before turning the bus around for reads
system.mem_ctrl.wrPerTurnAround::mean       16.001704                       # Writes before turning the bus around for reads
system.mem_ctrl.wrPerTurnAround::gmean      16.001653                       # Writes before turning the bus around for reads
system.mem_ctrl.wrPerTurnAround::stdev       0.041274                       # Writes before turning the bus around for reads
system.mem_ctrl.wrPerTurnAround::16               586     99.83%     99.83% # Writes before turning the bus around for reads
system.mem_ctrl.wrPerTurnAround::17                 1      0.17%    100.00% # Writes before turning the bus around for reads
system.mem_ctrl.wrPerTurnAround::total            587                       # Writes before turning the bus around for reads
system.mem_ctrl.totQLat                    4391929750                       # Total ticks spent queuing
system.mem_ctrl.totMemAccLat              12201154750                       # Total ticks spent from burst creation until serviced by the DRAM
system.mem_ctrl.totBusLat                  2082460000                       # Total ticks spent in databus transfers
system.mem_ctrl.avgQLat                      10545.05                       # Average queueing delay per DRAM burst
system.mem_ctrl.avgBusLat                     5000.00                       # Average bus latency per DRAM burst
system.mem_ctrl.avgMemAccLat                 29295.05                       # Average memory access latency per DRAM burst
system.mem_ctrl.avgRdBW                       1793.36                       # Average DRAM read bandwidth in MiByte/s
system.mem_ctrl.avgWrBW                         40.44                       # Average achieved write bandwidth in MiByte/s
system.mem_ctrl.avgRdBWSys                    1025.30                       # Average system read bandwidth in MiByte/s
system.mem_ctrl.avgWrBWSys                      23.14                       # Average system write bandwidth in MiByte/s
system.mem_ctrl.peakBW                       12800.00                       # Theoretical peak bandwidth in MiByte/s
system.mem_ctrl.busUtil                         14.33                       # Data bus utilization in percentage
system.mem_ctrl.busUtilRead                     14.01                       # Data bus utilization in percentage for reads
system.mem_ctrl.busUtilWrite                     0.32                       # Data bus utilization in percentage for writes
system.mem_ctrl.avgRdQLen                        1.64                       # Average read queue length when enqueuing
system.mem_ctrl.avgWrQLen                       25.61                       # Average write queue length when enqueuing
system.mem_ctrl.readRowHits                    369119                       # Number of row buffer hits during reads
system.mem_ctrl.writeRowHits                     8636                       # Number of row buffer hits during writes
system.mem_ctrl.readRowHitRate                  88.63                       # Row buffer hit rate for reads
system.mem_ctrl.writeRowHitRate                 91.67                       # Row buffer hit rate for writes
system.mem_ctrl.avgGap                       25869.44                       # Average gap between requests
system.mem_ctrl.pageHitRate                     88.69                       # Row buffer hit rate, read and write combined
system.mem_ctrl_0.actEnergy                 329318220                       # Energy for activate commands per rank (pJ)
system.mem_ctrl_0.preEnergy                 175025400                       # Energy for precharge commands per rank (pJ)
system.mem_ctrl_0.readEnergy               2850916320                       # Energy for read commands per rank (pJ)
system.mem_ctrl_0.writeEnergy                40517640                       # Energy for write commands per rank (pJ)
system.mem_ctrl_0.refreshEnergy          1173962400.000000                       # Energy for refresh commands per rank (pJ)
system.mem_ctrl_0.actBackEnergy            3977294130                       # Energy for active background per rank (pJ)
system.mem_ctrl_0.preBackEnergy              32243520                       # Energy for precharge background per rank (pJ)
system.mem_ctrl_0.actPowerDownEnergy       2737911210                       # Energy for active power-down per rank (pJ)
system.mem_ctrl_0.prePowerDownEnergy         19111680                       # Energy for precharge power-down per rank (pJ)
system.mem_ctrl_0.selfRefreshEnergy      1916280.000000                       # Energy for self refresh per rank (pJ)
system.mem_ctrl_0.totalEnergy             11338216800                       # Total energy per rank (pJ)
system.mem_ctrl_0.averagePower             762.825502                       # Core power per rank (mW)
system.mem_ctrl_0.totalIdleTime            6056520000                       # Total Idle time Per DRAM Rank
system.mem_ctrl_0.memoryStateTime::IDLE       9762500                       # Time in different power states
system.mem_ctrl_0.memoryStateTime::REF      496612000                       # Time in different power states
system.mem_ctrl_0.memoryStateTime::SREF       3382500                       # Time in different power states
system.mem_ctrl_0.memoryStateTime::PRE_PDN     49798500                       # Time in different power states
system.mem_ctrl_0.memoryStateTime::ACT     8300305250                       # Time in different power states
system.mem_ctrl_0.memoryStateTime::ACT_PDN   6003585750                       # Time in different power states
system.mem_ctrl_1.actEnergy                  14329980                       # Energy for activate commands per rank (pJ)
system.mem_ctrl_1.preEnergy                   7597590                       # Energy for precharge commands per rank (pJ)
system.mem_ctrl_1.readEnergy                122829420                       # Energy for read commands per rank (pJ)
system.mem_ctrl_1.writeEnergy                 8513820                       # Energy for write commands per rank (pJ)
system.mem_ctrl_1.refreshEnergy          607264320.000000                       # Energy for refresh commands per rank (pJ)
system.mem_ctrl_1.actBackEnergy             573678780                       # Energy for active background per rank (pJ)
system.mem_ctrl_1.preBackEnergy              43662240                       # Energy for precharge background per rank (pJ)
system.mem_ctrl_1.actPowerDownEnergy       1298131680                       # Energy for active power-down per rank (pJ)
system.mem_ctrl_1.prePowerDownEnergy        751652640                       # Energy for precharge power-down per rank (pJ)
system.mem_ctrl_1.selfRefreshEnergy        2200991805                       # Energy for self refresh per rank (pJ)
system.mem_ctrl_1.totalEnergy              5628711135                       # Total energy per rank (pJ)
system.mem_ctrl_1.averagePower             378.694858                       # Core power per rank (mW)
system.mem_ctrl_1.totalIdleTime           13491937500                       # Total Idle time Per DRAM Rank
system.mem_ctrl_1.memoryStateTime::IDLE      83837000                       # Time in different power states
system.mem_ctrl_1.memoryStateTime::REF      258194000                       # Time in different power states
system.mem_ctrl_1.memoryStateTime::SREF    8687305500                       # Time in different power states
system.mem_ctrl_1.memoryStateTime::PRE_PDN   1957436000                       # Time in different power states
system.mem_ctrl_1.memoryStateTime::ACT     1029478000                       # Time in different power states
system.mem_ctrl_1.memoryStateTime::ACT_PDN   2847196000                       # Time in different power states
system.pwrStateResidencyTicks::UNDEFINED  14863446500                       # Cumulative time (in ticks) in various power states
system.cpu.branchPred.lookups                      79                       # Number of BP lookups
system.cpu.branchPred.condPredicted                79                       # Number of conditional branches predicted
system.cpu.branchPred.condIncorrect                31                       # Number of conditional branches incorrect
system.cpu.branchPred.BTBLookups                   45                       # Number of BTB lookups
system.cpu.branchPred.BTBHits                       0                       # Number of BTB hits
system.cpu.branchPred.BTBCorrect                    0                       # Number of correct BTB predictions (this stat may not work properly.
system.cpu.branchPred.BTBHitPct              0.000000                       # BTB Hit Percentage
system.cpu.branchPred.usedRAS                       0                       # Number of times the RAS was used to get a target.
system.cpu.branchPred.RASInCorrect                  0                       # Number of incorrect RAS predictions.
system.cpu.branchPred.indirectLookups              45                       # Number of indirect predictor lookups.
system.cpu.branchPred.indirectHits                  0                       # Number of indirect target hits.
system.cpu.branchPred.indirectMisses               45                       # Number of indirect misses.
system.cpu.branchPredindirectMispredicted           16                       # Number of mispredicted indirect branches.
system.cpu.dtb.walker.pwrStateResidencyTicks::UNDEFINED  14863446500                       # Cumulative time (in ticks) in various power states
system.cpu.dtb.rdAccesses                      283573                       # TLB accesses on read requests
system.cpu.dtb.wrAccesses                       76327                       # TLB accesses on write requests
system.cpu.dtb.rdMisses                          1693                       # TLB misses on read requests
system.cpu.dtb.wrMisses                            33                       # TLB misses on write requests
system.cpu.apic_clk_domain.clock                 8000                       # Clock period in ticks
system.cpu.interrupts.pwrStateResidencyTicks::UNDEFINED  14863446500                       # Cumulative time (in ticks) in various power states
system.cpu.itb.walker.pwrStateResidencyTicks::UNDEFINED  14863446500                       # Cumulative time (in ticks) in various power states
system.cpu.itb.rdAccesses                           0                       # TLB accesses on read requests
system.cpu.itb.wrAccesses                      217034                       # TLB accesses on write requests
system.cpu.itb.rdMisses                             0                       # TLB misses on read requests
system.cpu.itb.wrMisses                            89                       # TLB misses on write requests
system.cpu.workload.numSyscalls                    32                       # Number of system calls
system.cpu.pwrStateResidencyTicks::ON     14863446500                       # Cumulative time (in ticks) in various power states
system.cpu.numCycles                         29726893                       # number of cpu cycles simulated
system.cpu.numWorkItemsStarted                      0                       # number of work items this cpu started
system.cpu.numWorkItemsCompleted                    0                       # number of work items this cpu completed
system.cpu.committedInsts                      567373                       # Number of instructions committed
system.cpu.committedOps                        999102                       # Number of ops (including micro ops) committed
system.cpu.discardedOps                        224456                       # Number of ops (including micro ops) which were discarded before commit
system.cpu.numFetchSuspends                         0                       # Number of times Execute suspended instruction fetching
system.cpu.cpi                              52.393915                       # CPI: cycles per instruction
system.cpu.ipc                               0.019086                       # IPC: instructions per cycle
system.cpu.op_class_0::No_OpClass                1287      0.13%      0.13% # Class of committed instruction
system.cpu.op_class_0::IntAlu                  668743     66.93%     67.06% # Class of committed instruction
system.cpu.op_class_0::IntMult                    146      0.01%     67.08% # Class of committed instruction
system.cpu.op_class_0::IntDiv                    1131      0.11%     67.19% # Class of committed instruction
system.cpu.op_class_0::FloatAdd                  2227      0.22%     67.41% # Class of committed instruction
system.cpu.op_class_0::FloatCmp                     0      0.00%     67.41% # Class of committed instruction
system.cpu.op_class_0::FloatCvt                     0      0.00%     67.41% # Class of committed instruction
system.cpu.op_class_0::FloatMult                    0      0.00%     67.41% # Class of committed instruction
system.cpu.op_class_0::FloatMultAcc                 0      0.00%     67.41% # Class of committed instruction
system.cpu.op_class_0::FloatDiv                     0      0.00%     67.41% # Class of committed instruction
system.cpu.op_class_0::FloatMisc                    0      0.00%     67.41% # Class of committed instruction
system.cpu.op_class_0::FloatSqrt                    0      0.00%     67.41% # Class of committed instruction
system.cpu.op_class_0::SimdAdd                      0      0.00%     67.41% # Class of committed instruction
system.cpu.op_class_0::SimdAddAcc                   0      0.00%     67.41% # Class of committed instruction
system.cpu.op_class_0::SimdAlu                      0      0.00%     67.41% # Class of committed instruction
system.cpu.op_class_0::SimdCmp                      0      0.00%     67.41% # Class of committed instruction
system.cpu.op_class_0::SimdCvt                      0      0.00%     67.41% # Class of committed instruction
system.cpu.op_class_0::SimdMisc                     0      0.00%     67.41% # Class of committed instruction
system.cpu.op_class_0::SimdMult                     0      0.00%     67.41% # Class of committed instruction
system.cpu.op_class_0::SimdMultAcc                  0      0.00%     67.41% # Class of committed instruction
system.cpu.op_class_0::SimdShift                    0      0.00%     67.41% # Class of committed instruction
system.cpu.op_class_0::SimdShiftAcc                 0      0.00%     67.41% # Class of committed instruction
system.cpu.op_class_0::SimdSqrt                     0      0.00%     67.41% # Class of committed instruction
system.cpu.op_class_0::SimdFloatAdd                 0      0.00%     67.41% # Class of committed instruction
system.cpu.op_class_0::SimdFloatAlu                 0      0.00%     67.41% # Class of committed instruction
system.cpu.op_class_0::SimdFloatCmp                 0      0.00%     67.41% # Class of committed instruction
system.cpu.op_class_0::SimdFloatCvt                 0      0.00%     67.41% # Class of committed instruction
system.cpu.op_class_0::SimdFloatDiv                 0      0.00%     67.41% # Class of committed instruction
system.cpu.op_class_0::SimdFloatMisc                0      0.00%     67.41% # Class of committed instruction
system.cpu.op_class_0::SimdFloatMult                0      0.00%     67.41% # Class of committed instruction
system.cpu.op_class_0::SimdFloatMultAcc             0      0.00%     67.41% # Class of committed instruction
system.cpu.op_class_0::SimdFloatSqrt                0      0.00%     67.41% # Class of committed instruction
system.cpu.op_class_0::MemRead                 248632     24.89%     92.30% # Class of committed instruction
system.cpu.op_class_0::MemWrite                 75770      7.58%     99.88% # Class of committed instruction
system.cpu.op_class_0::FloatMemRead               782      0.08%     99.96% # Class of committed instruction
system.cpu.op_class_0::FloatMemWrite              384      0.04%    100.00% # Class of committed instruction
system.cpu.op_class_0::IprAccess                    0      0.00%    100.00% # Class of committed instruction
system.cpu.op_class_0::InstPrefetch                 0      0.00%    100.00% # Class of committed instruction
system.cpu.op_class_0::total                   999102                       # Class of committed instruction
system.cpu.tickCycles                         2948201                       # Number of cycles that the object actually ticked
system.cpu.idleCycles                        26778692                       # Total number of cycles that the object has spent stopped
system.membus.snoop_filter.tot_requests             0                       # Total number of requests made to the snoop filter.
system.membus.snoop_filter.hit_single_requests            0                       # Number of requests hitting in the snoop filter with a single holder of the requested data.
system.membus.snoop_filter.hit_multi_requests            0                       # Number of requests hitting in the snoop filter with multiple (>1) holders of the requested data.
system.membus.snoop_filter.tot_snoops               0                       # Total number of snoops made to the snoop filter.
system.membus.snoop_filter.hit_single_snoops            0                       # Number of snoops hitting in the snoop filter with a single holder of the requested data.
system.membus.snoop_filter.hit_multi_snoops            0                       # Number of snoops hitting in the snoop filter with multiple (>1) holders of the requested data.
system.membus.pwrStateResidencyTicks::UNDEFINED  14863446500                       # Cumulative time (in ticks) in various power states
system.membus.trans_dist::ReadReq              498402                       # Transaction distribution
system.membus.trans_dist::ReadResp             498401                       # Transaction distribution
system.membus.trans_dist::WriteReq              76154                       # Transaction distribution
system.membus.trans_dist::WriteResp             76154                       # Transaction distribution
system.membus.pkt_count_system.cpu.fetch1.icache_port::system.mem_ctrl.port       434067                       # Packet count per connected master and slave (bytes)
system.membus.pkt_count_system.cpu.fetch1.icache_port::total       434067                       # Packet count per connected master and slave (bytes)
system.membus.pkt_count_system.cpu.execute.dcache_port::system.mem_ctrl.port       715044                       # Packet count per connected master and slave (bytes)
system.membus.pkt_count_system.cpu.execute.dcache_port::total       715044                       # Packet count per connected master and slave (bytes)
system.membus.pkt_count::total                1149111                       # Packet count per connected master and slave (bytes)
system.membus.pkt_size_system.cpu.fetch1.icache_port::system.mem_ctrl.port     13890112                       # Cumulative packet size per connected master and slave (bytes)
system.membus.pkt_size_system.cpu.fetch1.icache_port::total     13890112                       # Cumulative packet size per connected master and slave (bytes)
system.membus.pkt_size_system.cpu.execute.dcache_port::system.mem_ctrl.port      1693290                       # Cumulative packet size per connected master and slave (bytes)
system.membus.pkt_size_system.cpu.execute.dcache_port::total      1693290                       # Cumulative packet size per connected master and slave (bytes)
system.membus.pkt_size::total                15583402                       # Cumulative packet size per connected master and slave (bytes)
system.membus.snoops                                0                       # Total snoops (count)
system.membus.snoopTraffic                          0                       # Total snoop traffic (bytes)
system.membus.snoop_fanout::samples            574556                       # Request fanout histogram
system.membus.snoop_fanout::mean                    0                       # Request fanout histogram
system.membus.snoop_fanout::stdev                   0                       # Request fanout histogram
system.membus.snoop_fanout::underflows              0      0.00%      0.00% # Request fanout histogram
system.membus.snoop_fanout::0                  574556    100.00%    100.00% # Request fanout histogram
system.membus.snoop_fanout::1                       0      0.00%    100.00% # Request fanout histogram
system.membus.snoop_fanout::overflows               0      0.00%    100.00% # Request fanout histogram
system.membus.snoop_fanout::min_value               0                       # Request fanout histogram
system.membus.snoop_fanout::max_value               0                       # Request fanout histogram
system.membus.snoop_fanout::total              574556                       # Request fanout histogram
system.membus.reqLayer2.occupancy           325355000                       # Layer occupancy (ticks)
system.membus.reqLayer2.utilization               2.2                       # Layer utilization (%)
system.membus.respLayer0.occupancy          592545500                       # Layer occupancy (ticks)
system.membus.respLayer0.utilization              4.0                       # Layer utilization (%)
system.membus.respLayer1.occupancy          366981359                       # Layer occupancy (ticks)
system.membus.respLayer1.utilization              2.5                       # Layer utilization (%)

---------- End Simulation Statistics   ----------
