
---------- Begin Simulation Statistics ----------
sim_seconds                                  1.520474                       # Number of seconds simulated
sim_ticks                                1520474395936                       # Number of ticks simulated
final_tick                               1520474395936                       # Number of ticks from beginning of simulation (restored from checkpoints and never reset)
sim_freq                                 1000000000000                       # Frequency of simulated ticks
host_inst_rate                                 122507                       # Simulator instruction rate (inst/s)
host_op_rate                                   210718                       # Simulator op (including micro ops) rate (op/s)
host_tick_rate                             3904977756                       # Simulator tick rate (ticks/s)
host_mem_usage                                 668420                       # Number of bytes of host memory used
host_seconds                                   389.37                       # Real time elapsed on the host
sim_insts                                    47700244                       # Number of instructions simulated
sim_ops                                      82046706                       # Number of ops (including micro ops) simulated
system.clk_domain.voltage_domain.voltage            1                       # Voltage in Volts
system.clk_domain.clock                           667                       # Clock period in ticks
system.mem_ctrl.pwrStateResidencyTicks::UNDEFINED 1520474395936                       # Cumulative time (in ticks) in various power states
system.mem_ctrl.bytes_read::cpu.inst       1171889856                       # Number of bytes read from this memory
system.mem_ctrl.bytes_read::cpu.data        124182856                       # Number of bytes read from this memory
system.mem_ctrl.bytes_read::total          1296072712                       # Number of bytes read from this memory
system.mem_ctrl.bytes_inst_read::cpu.inst   1171889856                       # Number of instructions bytes read from this memory
system.mem_ctrl.bytes_inst_read::total     1171889856                       # Number of instructions bytes read from this memory
system.mem_ctrl.bytes_written::cpu.data      29377849                       # Number of bytes written to this memory
system.mem_ctrl.bytes_written::total         29377849                       # Number of bytes written to this memory
system.mem_ctrl.num_reads::cpu.inst          18310779                       # Number of read requests responded to by this memory
system.mem_ctrl.num_reads::cpu.data          26903607                       # Number of read requests responded to by this memory
system.mem_ctrl.num_reads::total             45214386                       # Number of read requests responded to by this memory
system.mem_ctrl.num_writes::cpu.data          7334621                       # Number of write requests responded to by this memory
system.mem_ctrl.num_writes::total             7334621                       # Number of write requests responded to by this memory
system.mem_ctrl.bw_read::cpu.inst           770739619                       # Total read bandwidth from this memory (bytes/s)
system.mem_ctrl.bw_read::cpu.data            81673757                       # Total read bandwidth from this memory (bytes/s)
system.mem_ctrl.bw_read::total              852413375                       # Total read bandwidth from this memory (bytes/s)
system.mem_ctrl.bw_inst_read::cpu.inst      770739619                       # Instruction read bandwidth from this memory (bytes/s)
system.mem_ctrl.bw_inst_read::total         770739619                       # Instruction read bandwidth from this memory (bytes/s)
system.mem_ctrl.bw_write::cpu.data           19321502                       # Write bandwidth from this memory (bytes/s)
system.mem_ctrl.bw_write::total              19321502                       # Write bandwidth from this memory (bytes/s)
system.mem_ctrl.bw_total::cpu.inst          770739619                       # Total bandwidth to/from this memory (bytes/s)
system.mem_ctrl.bw_total::cpu.data          100995259                       # Total bandwidth to/from this memory (bytes/s)
system.mem_ctrl.bw_total::total             871734877                       # Total bandwidth to/from this memory (bytes/s)
system.mem_ctrl.readReqs                     45214387                       # Number of read requests accepted
system.mem_ctrl.writeReqs                     7334621                       # Number of write requests accepted
system.mem_ctrl.readBursts                   63525177                       # Number of DRAM read bursts, including those serviced by the write queue
system.mem_ctrl.writeBursts                   7334621                       # Number of DRAM write bursts, including those merged in the write queue
system.mem_ctrl.bytesReadDRAM              1736219744                       # Total number of bytes read from DRAM
system.mem_ctrl.bytesReadWrQ                296585920                       # Total number of bytes read from write queue
system.mem_ctrl.bytesWritten                 53776896                       # Total number of bytes written to DRAM
system.mem_ctrl.bytesReadSys               1296072776                       # Total read bytes from the system interface side
system.mem_ctrl.bytesWrittenSys              29377849                       # Total written bytes from the system interface side
system.mem_ctrl.servicedByWrQ                 9268310                       # Number of DRAM read bursts serviced by the write queue
system.mem_ctrl.mergedWrBursts                5654069                       # Number of DRAM write bursts merged with an existing one
system.mem_ctrl.neitherReadNorWriteReqs             0                       # Number of requests that are neither read nor write
system.mem_ctrl.perBankRdBursts::0            4305857                       # Per bank write bursts
system.mem_ctrl.perBankRdBursts::1           36648709                       # Per bank write bursts
system.mem_ctrl.perBankRdBursts::2             136150                       # Per bank write bursts
system.mem_ctrl.perBankRdBursts::3           12609586                       # Per bank write bursts
system.mem_ctrl.perBankRdBursts::4             132605                       # Per bank write bursts
system.mem_ctrl.perBankRdBursts::5             150898                       # Per bank write bursts
system.mem_ctrl.perBankRdBursts::6             141888                       # Per bank write bursts
system.mem_ctrl.perBankRdBursts::7             131174                       # Per bank write bursts
system.mem_ctrl.perBankWrBursts::0             196503                       # Per bank write bursts
system.mem_ctrl.perBankWrBursts::1             196902                       # Per bank write bursts
system.mem_ctrl.perBankWrBursts::2             200139                       # Per bank write bursts
system.mem_ctrl.perBankWrBursts::3             296966                       # Per bank write bursts
system.mem_ctrl.perBankWrBursts::4             199551                       # Per bank write bursts
system.mem_ctrl.perBankWrBursts::5             196996                       # Per bank write bursts
system.mem_ctrl.perBankWrBursts::6             196953                       # Per bank write bursts
system.mem_ctrl.perBankWrBursts::7             196518                       # Per bank write bursts
system.mem_ctrl.numRdRetry                          0                       # Number of times read queue was full causing retry
system.mem_ctrl.numWrRetry                          0                       # Number of times write queue was full causing retry
system.mem_ctrl.totGap                   1520474391267                       # Total gap between requests
system.mem_ctrl.readPktSize::0                   7600                       # Read request sizes (log2)
system.mem_ctrl.readPktSize::1                   2624                       # Read request sizes (log2)
system.mem_ctrl.readPktSize::2               22744276                       # Read request sizes (log2)
system.mem_ctrl.readPktSize::3                4149117                       # Read request sizes (log2)
system.mem_ctrl.readPktSize::4                      0                       # Read request sizes (log2)
system.mem_ctrl.readPktSize::5               36621560                       # Read request sizes (log2)
system.mem_ctrl.writePktSize::0                   109                       # Write request sizes (log2)
system.mem_ctrl.writePktSize::1                    20                       # Write request sizes (log2)
system.mem_ctrl.writePktSize::2               7324559                       # Write request sizes (log2)
system.mem_ctrl.writePktSize::3                  9933                       # Write request sizes (log2)
system.mem_ctrl.writePktSize::4                     0                       # Write request sizes (log2)
system.mem_ctrl.writePktSize::5                     0                       # Write request sizes (log2)
system.mem_ctrl.rdQLenPdf::0                 19679489                       # What read queue length does an incoming req see
system.mem_ctrl.rdQLenPdf::1                 18359981                       # What read queue length does an incoming req see
system.mem_ctrl.rdQLenPdf::2                 16212838                       # What read queue length does an incoming req see
system.mem_ctrl.rdQLenPdf::3                     4553                       # What read queue length does an incoming req see
system.mem_ctrl.rdQLenPdf::4                        6                       # What read queue length does an incoming req see
system.mem_ctrl.rdQLenPdf::5                        0                       # What read queue length does an incoming req see
system.mem_ctrl.rdQLenPdf::6                        0                       # What read queue length does an incoming req see
system.mem_ctrl.rdQLenPdf::7                        0                       # What read queue length does an incoming req see
system.mem_ctrl.rdQLenPdf::8                        0                       # What read queue length does an incoming req see
system.mem_ctrl.rdQLenPdf::9                        0                       # What read queue length does an incoming req see
system.mem_ctrl.rdQLenPdf::10                       0                       # What read queue length does an incoming req see
system.mem_ctrl.rdQLenPdf::11                       0                       # What read queue length does an incoming req see
system.mem_ctrl.rdQLenPdf::12                       0                       # What read queue length does an incoming req see
system.mem_ctrl.rdQLenPdf::13                       0                       # What read queue length does an incoming req see
system.mem_ctrl.rdQLenPdf::14                       0                       # What read queue length does an incoming req see
system.mem_ctrl.rdQLenPdf::15                       0                       # What read queue length does an incoming req see
system.mem_ctrl.rdQLenPdf::16                       0                       # What read queue length does an incoming req see
system.mem_ctrl.rdQLenPdf::17                       0                       # What read queue length does an incoming req see
system.mem_ctrl.rdQLenPdf::18                       0                       # What read queue length does an incoming req see
system.mem_ctrl.rdQLenPdf::19                       0                       # What read queue length does an incoming req see
system.mem_ctrl.rdQLenPdf::20                       0                       # What read queue length does an incoming req see
system.mem_ctrl.rdQLenPdf::21                       0                       # What read queue length does an incoming req see
system.mem_ctrl.rdQLenPdf::22                       0                       # What read queue length does an incoming req see
system.mem_ctrl.rdQLenPdf::23                       0                       # What read queue length does an incoming req see
system.mem_ctrl.rdQLenPdf::24                       0                       # What read queue length does an incoming req see
system.mem_ctrl.rdQLenPdf::25                       0                       # What read queue length does an incoming req see
system.mem_ctrl.rdQLenPdf::26                       0                       # What read queue length does an incoming req see
system.mem_ctrl.rdQLenPdf::27                       0                       # What read queue length does an incoming req see
system.mem_ctrl.rdQLenPdf::28                       0                       # What read queue length does an incoming req see
system.mem_ctrl.rdQLenPdf::29                       0                       # What read queue length does an incoming req see
system.mem_ctrl.rdQLenPdf::30                       0                       # What read queue length does an incoming req see
system.mem_ctrl.rdQLenPdf::31                       0                       # What read queue length does an incoming req see
system.mem_ctrl.wrQLenPdf::0                        1                       # What write queue length does an incoming req see
system.mem_ctrl.wrQLenPdf::1                        1                       # What write queue length does an incoming req see
system.mem_ctrl.wrQLenPdf::2                        1                       # What write queue length does an incoming req see
system.mem_ctrl.wrQLenPdf::3                        1                       # What write queue length does an incoming req see
system.mem_ctrl.wrQLenPdf::4                        1                       # What write queue length does an incoming req see
system.mem_ctrl.wrQLenPdf::5                        1                       # What write queue length does an incoming req see
system.mem_ctrl.wrQLenPdf::6                        1                       # What write queue length does an incoming req see
system.mem_ctrl.wrQLenPdf::7                        1                       # What write queue length does an incoming req see
system.mem_ctrl.wrQLenPdf::8                        1                       # What write queue length does an incoming req see
system.mem_ctrl.wrQLenPdf::9                        1                       # What write queue length does an incoming req see
system.mem_ctrl.wrQLenPdf::10                       1                       # What write queue length does an incoming req see
system.mem_ctrl.wrQLenPdf::11                       1                       # What write queue length does an incoming req see
system.mem_ctrl.wrQLenPdf::12                       1                       # What write queue length does an incoming req see
system.mem_ctrl.wrQLenPdf::13                       1                       # What write queue length does an incoming req see
system.mem_ctrl.wrQLenPdf::14                       1                       # What write queue length does an incoming req see
system.mem_ctrl.wrQLenPdf::15                       1                       # What write queue length does an incoming req see
system.mem_ctrl.wrQLenPdf::16                       1                       # What write queue length does an incoming req see
system.mem_ctrl.wrQLenPdf::17                  105017                       # What write queue length does an incoming req see
system.mem_ctrl.wrQLenPdf::18                  105028                       # What write queue length does an incoming req see
system.mem_ctrl.wrQLenPdf::19                  105030                       # What write queue length does an incoming req see
system.mem_ctrl.wrQLenPdf::20                  105035                       # What write queue length does an incoming req see
system.mem_ctrl.wrQLenPdf::21                  105037                       # What write queue length does an incoming req see
system.mem_ctrl.wrQLenPdf::22                  105037                       # What write queue length does an incoming req see
system.mem_ctrl.wrQLenPdf::23                  105036                       # What write queue length does an incoming req see
system.mem_ctrl.wrQLenPdf::24                  105036                       # What write queue length does an incoming req see
system.mem_ctrl.wrQLenPdf::25                  105033                       # What write queue length does an incoming req see
system.mem_ctrl.wrQLenPdf::26                  105034                       # What write queue length does an incoming req see
system.mem_ctrl.wrQLenPdf::27                  105037                       # What write queue length does an incoming req see
system.mem_ctrl.wrQLenPdf::28                  105035                       # What write queue length does an incoming req see
system.mem_ctrl.wrQLenPdf::29                  105035                       # What write queue length does an incoming req see
system.mem_ctrl.wrQLenPdf::30                  105035                       # What write queue length does an incoming req see
system.mem_ctrl.wrQLenPdf::31                  105034                       # What write queue length does an incoming req see
system.mem_ctrl.wrQLenPdf::32                  105033                       # What write queue length does an incoming req see
system.mem_ctrl.wrQLenPdf::33                       3                       # What write queue length does an incoming req see
system.mem_ctrl.wrQLenPdf::34                       0                       # What write queue length does an incoming req see
system.mem_ctrl.wrQLenPdf::35                       0                       # What write queue length does an incoming req see
system.mem_ctrl.wrQLenPdf::36                       0                       # What write queue length does an incoming req see
system.mem_ctrl.wrQLenPdf::37                       0                       # What write queue length does an incoming req see
system.mem_ctrl.wrQLenPdf::38                       0                       # What write queue length does an incoming req see
system.mem_ctrl.wrQLenPdf::39                       0                       # What write queue length does an incoming req see
system.mem_ctrl.wrQLenPdf::40                       0                       # What write queue length does an incoming req see
system.mem_ctrl.wrQLenPdf::41                       0                       # What write queue length does an incoming req see
system.mem_ctrl.wrQLenPdf::42                       0                       # What write queue length does an incoming req see
system.mem_ctrl.wrQLenPdf::43                       0                       # What write queue length does an incoming req see
system.mem_ctrl.wrQLenPdf::44                       0                       # What write queue length does an incoming req see
system.mem_ctrl.wrQLenPdf::45                       0                       # What write queue length does an incoming req see
system.mem_ctrl.wrQLenPdf::46                       0                       # What write queue length does an incoming req see
system.mem_ctrl.wrQLenPdf::47                       0                       # What write queue length does an incoming req see
system.mem_ctrl.wrQLenPdf::48                       0                       # What write queue length does an incoming req see
system.mem_ctrl.wrQLenPdf::49                       0                       # What write queue length does an incoming req see
system.mem_ctrl.wrQLenPdf::50                       0                       # What write queue length does an incoming req see
system.mem_ctrl.wrQLenPdf::51                       0                       # What write queue length does an incoming req see
system.mem_ctrl.wrQLenPdf::52                       0                       # What write queue length does an incoming req see
system.mem_ctrl.wrQLenPdf::53                       0                       # What write queue length does an incoming req see
system.mem_ctrl.wrQLenPdf::54                       0                       # What write queue length does an incoming req see
system.mem_ctrl.wrQLenPdf::55                       0                       # What write queue length does an incoming req see
system.mem_ctrl.wrQLenPdf::56                       0                       # What write queue length does an incoming req see
system.mem_ctrl.wrQLenPdf::57                       0                       # What write queue length does an incoming req see
system.mem_ctrl.wrQLenPdf::58                       0                       # What write queue length does an incoming req see
system.mem_ctrl.wrQLenPdf::59                       0                       # What write queue length does an incoming req see
system.mem_ctrl.wrQLenPdf::60                       0                       # What write queue length does an incoming req see
system.mem_ctrl.wrQLenPdf::61                       0                       # What write queue length does an incoming req see
system.mem_ctrl.wrQLenPdf::62                       0                       # What write queue length does an incoming req see
system.mem_ctrl.wrQLenPdf::63                       0                       # What write queue length does an incoming req see
system.mem_ctrl.bytesPerActivate::samples      5074697                       # Bytes accessed per row activation
system.mem_ctrl.bytesPerActivate::mean     352.729631                       # Bytes accessed per row activation
system.mem_ctrl.bytesPerActivate::gmean    248.937660                       # Bytes accessed per row activation
system.mem_ctrl.bytesPerActivate::stdev    196.799757                       # Bytes accessed per row activation
system.mem_ctrl.bytesPerActivate::0-63         785295     15.47%     15.47% # Bytes accessed per row activation
system.mem_ctrl.bytesPerActivate::64-127       294967      5.81%     21.29% # Bytes accessed per row activation
system.mem_ctrl.bytesPerActivate::128-191       286689      5.65%     26.94% # Bytes accessed per row activation
system.mem_ctrl.bytesPerActivate::192-255       377457      7.44%     34.37% # Bytes accessed per row activation
system.mem_ctrl.bytesPerActivate::256-319       113274      2.23%     36.61% # Bytes accessed per row activation
system.mem_ctrl.bytesPerActivate::320-383        95732      1.89%     38.49% # Bytes accessed per row activation
system.mem_ctrl.bytesPerActivate::384-447       188446      3.71%     42.21% # Bytes accessed per row activation
system.mem_ctrl.bytesPerActivate::448-511       241606      4.76%     46.97% # Bytes accessed per row activation
system.mem_ctrl.bytesPerActivate::512-575      2691231     53.03%    100.00% # Bytes accessed per row activation
system.mem_ctrl.bytesPerActivate::total       5074697                       # Bytes accessed per row activation
system.mem_ctrl.rdPerTurnAround::samples       105033                       # Reads before turning the bus around for writes
system.mem_ctrl.rdPerTurnAround::mean      516.568812                       # Reads before turning the bus around for writes
system.mem_ctrl.rdPerTurnAround::gmean     262.231801                       # Reads before turning the bus around for writes
system.mem_ctrl.rdPerTurnAround::stdev   63344.257056                       # Reads before turning the bus around for writes
system.mem_ctrl.rdPerTurnAround::0-1.04858e+06       105032    100.00%    100.00% # Reads before turning the bus around for writes
system.mem_ctrl.rdPerTurnAround::1.99229e+07-2.09715e+07            1      0.00%    100.00% # Reads before turning the bus around for writes
system.mem_ctrl.rdPerTurnAround::total         105033                       # Reads before turning the bus around for writes
system.mem_ctrl.wrPerTurnAround::samples       105033                       # Writes before turning the bus around for reads
system.mem_ctrl.wrPerTurnAround::mean              16                       # Writes before turning the bus around for reads
system.mem_ctrl.wrPerTurnAround::gmean      16.000000                       # Writes before turning the bus around for reads
system.mem_ctrl.wrPerTurnAround::16            105033    100.00%    100.00% # Writes before turning the bus around for reads
system.mem_ctrl.wrPerTurnAround::total         105033                       # Writes before turning the bus around for reads
system.mem_ctrl.totQLat                  842060754273                       # Total ticks spent queuing
system.mem_ctrl.totMemAccLat             2062840261773                       # Total ticks spent from burst creation until serviced by the DRAM
system.mem_ctrl.totBusLat                406926502500                       # Total ticks spent in databus transfers
system.mem_ctrl.avgQLat                      15519.89                       # Average queueing delay per DRAM burst
system.mem_ctrl.avgBusLat                     7500.00                       # Average bus latency per DRAM burst
system.mem_ctrl.avgMemAccLat                 38019.89                       # Average memory access latency per DRAM burst
system.mem_ctrl.avgRdBW                       1141.89                       # Average DRAM read bandwidth in MiByte/s
system.mem_ctrl.avgWrBW                         35.37                       # Average achieved write bandwidth in MiByte/s
system.mem_ctrl.avgRdBWSys                     852.41                       # Average system read bandwidth in MiByte/s
system.mem_ctrl.avgWrBWSys                      19.32                       # Average system write bandwidth in MiByte/s
system.mem_ctrl.peakBW                        4266.00                       # Theoretical peak bandwidth in MiByte/s
system.mem_ctrl.busUtil                         27.60                       # Data bus utilization in percentage
system.mem_ctrl.busUtilRead                     26.77                       # Data bus utilization in percentage for reads
system.mem_ctrl.busUtilWrite                     0.83                       # Data bus utilization in percentage for writes
system.mem_ctrl.avgRdQLen                        2.64                       # Average read queue length when enqueuing
system.mem_ctrl.avgWrQLen                       24.09                       # Average write queue length when enqueuing
system.mem_ctrl.readRowHits                  49630032                       # Number of row buffer hits during reads
system.mem_ctrl.writeRowHits                  1232661                       # Number of row buffer hits during writes
system.mem_ctrl.readRowHitRate                  91.47                       # Row buffer hit rate for reads
system.mem_ctrl.writeRowHitRate                 73.35                       # Row buffer hit rate for writes
system.mem_ctrl.avgGap                       28934.41                       # Average gap between requests
system.mem_ctrl.pageHitRate                     90.93                       # Row buffer hit rate, read and write combined
system.mem_ctrl_0.actEnergy              15436908553.667999                       # Energy for activate commands per rank (pJ)
system.mem_ctrl_0.preEnergy              5437899153.926399                       # Energy for precharge commands per rank (pJ)
system.mem_ctrl_0.readEnergy             93195150574.343994                       # Energy for read commands per rank (pJ)
system.mem_ctrl_0.writeEnergy            2591495174.016000                       # Energy for write commands per rank (pJ)
system.mem_ctrl_0.refreshEnergy          10869980826.599998                       # Energy for refresh commands per rank (pJ)
system.mem_ctrl_0.actBackEnergy          40625458405.685989                       # Energy for active background per rank (pJ)
system.mem_ctrl_0.preBackEnergy          509073124.190400                       # Energy for precharge background per rank (pJ)
system.mem_ctrl_0.actPowerDownEnergy     5921604105.486720                       # Energy for active power-down per rank (pJ)
system.mem_ctrl_0.prePowerDownEnergy     2006363.990400                       # Energy for precharge power-down per rank (pJ)
system.mem_ctrl_0.selfRefreshEnergy                 0                       # Energy for self refresh per rank (pJ)
system.mem_ctrl_0.totalEnergy            174589576281.907898                       # Total energy per rank (pJ)
system.mem_ctrl_0.averagePower             114.825726                       # Core power per rank (mW)
system.mem_ctrl_0.totalIdleTime          504523192720                       # Total Idle time Per DRAM Rank
system.mem_ctrl_0.memoryStateTime::IDLE    1141440667                       # Time in different power states
system.mem_ctrl_0.memoryStateTime::REF    51235752500                       # Time in different power states
system.mem_ctrl_0.memoryStateTime::SREF             0                       # Time in different power states
system.mem_ctrl_0.memoryStateTime::PRE_PDN    984106937                       # Time in different power states
system.mem_ctrl_0.memoryStateTime::ACT   963574010049                       # Time in different power states
system.mem_ctrl_0.memoryStateTime::ACT_PDN 503539085783                       # Time in different power states
system.pwrStateResidencyTicks::UNDEFINED 1520474395936                       # Cumulative time (in ticks) in various power states
system.cpu.branchPred.lookups                      80                       # Number of BP lookups
system.cpu.branchPred.condPredicted                80                       # Number of conditional branches predicted
system.cpu.branchPred.condIncorrect                32                       # Number of conditional branches incorrect
system.cpu.branchPred.BTBLookups                   46                       # Number of BTB lookups
system.cpu.branchPred.BTBHits                       0                       # Number of BTB hits
system.cpu.branchPred.BTBCorrect                    0                       # Number of correct BTB predictions (this stat may not work properly.
system.cpu.branchPred.BTBHitPct              0.000000                       # BTB Hit Percentage
system.cpu.branchPred.usedRAS                       0                       # Number of times the RAS was used to get a target.
system.cpu.branchPred.RASInCorrect                  0                       # Number of incorrect RAS predictions.
system.cpu.branchPred.indirectLookups              46                       # Number of indirect predictor lookups.
system.cpu.branchPred.indirectHits                  0                       # Number of indirect target hits.
system.cpu.branchPred.indirectMisses               46                       # Number of indirect misses.
system.cpu.branchPredindirectMispredicted           17                       # Number of mispredicted indirect branches.
system.cpu.dtb.walker.pwrStateResidencyTicks::UNDEFINED 1520474395936                       # Cumulative time (in ticks) in various power states
system.cpu.dtb.rdAccesses                    26907751                       # TLB accesses on read requests
system.cpu.dtb.wrAccesses                     7334794                       # TLB accesses on write requests
system.cpu.dtb.rdMisses                          2852                       # TLB misses on read requests
system.cpu.dtb.wrMisses                        116850                       # TLB misses on write requests
system.cpu.apic_clk_domain.clock                10672                       # Clock period in ticks
system.cpu.interrupts.pwrStateResidencyTicks::UNDEFINED 1520474395936                       # Cumulative time (in ticks) in various power states
system.cpu.itb.walker.pwrStateResidencyTicks::UNDEFINED 1520474395936                       # Cumulative time (in ticks) in various power states
system.cpu.itb.rdAccesses                           0                       # TLB accesses on read requests
system.cpu.itb.wrAccesses                    18310780                       # TLB accesses on write requests
system.cpu.itb.rdMisses                             0                       # TLB misses on read requests
system.cpu.itb.wrMisses                            90                       # TLB misses on write requests
system.cpu.workload.numSyscalls                    33                       # Number of system calls
system.cpu.pwrStateResidencyTicks::ON    1520474395936                       # Cumulative time (in ticks) in various power states
system.cpu.numCycles                       2279571808                       # number of cpu cycles simulated
system.cpu.numWorkItemsStarted                      0                       # number of work items this cpu started
system.cpu.numWorkItemsCompleted                    0                       # number of work items this cpu completed
system.cpu.committedInsts                    47700244                       # Number of instructions committed
system.cpu.committedOps                      82046706                       # Number of ops (including micro ops) committed
system.cpu.discardedOps                      18240422                       # Number of ops (including micro ops) which were discarded before commit
system.cpu.numFetchSuspends                         0                       # Number of times Execute suspended instruction fetching
system.cpu.cpi                              47.789521                       # CPI: cycles per instruction
system.cpu.ipc                               0.020925                       # IPC: instructions per cycle
system.cpu.op_class_0::No_OpClass                1287      0.00%      0.00% # Class of committed instruction
system.cpu.op_class_0::IntAlu                50852257     61.98%     61.98% # Class of committed instruction
system.cpu.op_class_0::IntMult                   1192      0.00%     61.98% # Class of committed instruction
system.cpu.op_class_0::IntDiv                    1131      0.00%     61.98% # Class of committed instruction
system.cpu.op_class_0::FloatAdd                  2227      0.00%     61.99% # Class of committed instruction
system.cpu.op_class_0::FloatCmp                     0      0.00%     61.99% # Class of committed instruction
system.cpu.op_class_0::FloatCvt                     0      0.00%     61.99% # Class of committed instruction
system.cpu.op_class_0::FloatMult                    0      0.00%     61.99% # Class of committed instruction
system.cpu.op_class_0::FloatMultAcc                 0      0.00%     61.99% # Class of committed instruction
system.cpu.op_class_0::FloatDiv                     0      0.00%     61.99% # Class of committed instruction
system.cpu.op_class_0::FloatMisc                    0      0.00%     61.99% # Class of committed instruction
system.cpu.op_class_0::FloatSqrt                    0      0.00%     61.99% # Class of committed instruction
system.cpu.op_class_0::SimdAdd                      0      0.00%     61.99% # Class of committed instruction
system.cpu.op_class_0::SimdAddAcc                   0      0.00%     61.99% # Class of committed instruction
system.cpu.op_class_0::SimdAlu                      0      0.00%     61.99% # Class of committed instruction
system.cpu.op_class_0::SimdCmp                      0      0.00%     61.99% # Class of committed instruction
system.cpu.op_class_0::SimdCvt                      0      0.00%     61.99% # Class of committed instruction
system.cpu.op_class_0::SimdMisc                     0      0.00%     61.99% # Class of committed instruction
system.cpu.op_class_0::SimdMult                     0      0.00%     61.99% # Class of committed instruction
system.cpu.op_class_0::SimdMultAcc                  0      0.00%     61.99% # Class of committed instruction
system.cpu.op_class_0::SimdShift                    0      0.00%     61.99% # Class of committed instruction
system.cpu.op_class_0::SimdShiftAcc                 0      0.00%     61.99% # Class of committed instruction
system.cpu.op_class_0::SimdSqrt                     0      0.00%     61.99% # Class of committed instruction
system.cpu.op_class_0::SimdFloatAdd                 0      0.00%     61.99% # Class of committed instruction
system.cpu.op_class_0::SimdFloatAlu                 0      0.00%     61.99% # Class of committed instruction
system.cpu.op_class_0::SimdFloatCmp                 0      0.00%     61.99% # Class of committed instruction
system.cpu.op_class_0::SimdFloatCvt                 0      0.00%     61.99% # Class of committed instruction
system.cpu.op_class_0::SimdFloatDiv                 0      0.00%     61.99% # Class of committed instruction
system.cpu.op_class_0::SimdFloatMisc                0      0.00%     61.99% # Class of committed instruction
system.cpu.op_class_0::SimdFloatMult                0      0.00%     61.99% # Class of committed instruction
system.cpu.op_class_0::SimdFloatMultAcc             0      0.00%     61.99% # Class of committed instruction
system.cpu.op_class_0::SimdFloatSqrt                0      0.00%     61.99% # Class of committed instruction
system.cpu.op_class_0::MemRead               23853209     29.07%     91.06% # Class of committed instruction
system.cpu.op_class_0::MemWrite               7334237      8.94%    100.00% # Class of committed instruction
system.cpu.op_class_0::FloatMemRead               782      0.00%    100.00% # Class of committed instruction
system.cpu.op_class_0::FloatMemWrite              384      0.00%    100.00% # Class of committed instruction
system.cpu.op_class_0::IprAccess                    0      0.00%    100.00% # Class of committed instruction
system.cpu.op_class_0::InstPrefetch                 0      0.00%    100.00% # Class of committed instruction
system.cpu.op_class_0::total                 82046706                       # Class of committed instruction
system.cpu.tickCycles                       255674302                       # Number of cycles that the object actually ticked
system.cpu.idleCycles                      2023897506                       # Total number of cycles that the object has spent stopped
system.membus.snoop_filter.tot_requests             0                       # Total number of requests made to the snoop filter.
system.membus.snoop_filter.hit_single_requests            0                       # Number of requests hitting in the snoop filter with a single holder of the requested data.
system.membus.snoop_filter.hit_multi_requests            0                       # Number of requests hitting in the snoop filter with multiple (>1) holders of the requested data.
system.membus.snoop_filter.tot_snoops               0                       # Total number of snoops made to the snoop filter.
system.membus.snoop_filter.hit_single_snoops            0                       # Number of snoops hitting in the snoop filter with a single holder of the requested data.
system.membus.snoop_filter.hit_multi_snoops            0                       # Number of snoops hitting in the snoop filter with multiple (>1) holders of the requested data.
system.membus.pwrStateResidencyTicks::UNDEFINED 1520474395936                       # Cumulative time (in ticks) in various power states
system.membus.trans_dist::ReadReq            45214387                       # Transaction distribution
system.membus.trans_dist::ReadResp           45214386                       # Transaction distribution
system.membus.trans_dist::WriteReq            7334621                       # Transaction distribution
system.membus.trans_dist::WriteResp           7334621                       # Transaction distribution
system.membus.pkt_count_system.cpu.fetch1.icache_port::system.mem_ctrl.port     36621559                       # Packet count per connected master and slave (bytes)
system.membus.pkt_count_system.cpu.fetch1.icache_port::total     36621559                       # Packet count per connected master and slave (bytes)
system.membus.pkt_count_system.cpu.execute.dcache_port::system.mem_ctrl.port     68476456                       # Packet count per connected master and slave (bytes)
system.membus.pkt_count_system.cpu.execute.dcache_port::total     68476456                       # Packet count per connected master and slave (bytes)
system.membus.pkt_count::total              105098015                       # Packet count per connected master and slave (bytes)
system.membus.pkt_size_system.cpu.fetch1.icache_port::system.mem_ctrl.port   1171889856                       # Cumulative packet size per connected master and slave (bytes)
system.membus.pkt_size_system.cpu.fetch1.icache_port::total   1171889856                       # Cumulative packet size per connected master and slave (bytes)
system.membus.pkt_size_system.cpu.execute.dcache_port::system.mem_ctrl.port    153560705                       # Cumulative packet size per connected master and slave (bytes)
system.membus.pkt_size_system.cpu.execute.dcache_port::total    153560705                       # Cumulative packet size per connected master and slave (bytes)
system.membus.pkt_size::total              1325450561                       # Cumulative packet size per connected master and slave (bytes)
system.membus.snoops                                0                       # Total snoops (count)
system.membus.snoopTraffic                          0                       # Total snoop traffic (bytes)
system.membus.snoop_fanout::samples          52549008                       # Request fanout histogram
system.membus.snoop_fanout::mean                    0                       # Request fanout histogram
system.membus.snoop_fanout::stdev                   0                       # Request fanout histogram
system.membus.snoop_fanout::underflows              0      0.00%      0.00% # Request fanout histogram
system.membus.snoop_fanout::0                52549008    100.00%    100.00% # Request fanout histogram
system.membus.snoop_fanout::1                       0      0.00%    100.00% # Request fanout histogram
system.membus.snoop_fanout::overflows               0      0.00%    100.00% # Request fanout histogram
system.membus.snoop_fanout::min_value               0                       # Request fanout histogram
system.membus.snoop_fanout::max_value               0                       # Request fanout histogram
system.membus.snoop_fanout::total            52549008                       # Request fanout histogram
system.membus.reqLayer2.occupancy         39942380543                       # Layer occupancy (ticks)
system.membus.reqLayer2.utilization               2.6                       # Layer utilization (%)
system.membus.respLayer0.occupancy        68541798201                       # Layer occupancy (ticks)
system.membus.respLayer0.utilization              4.5                       # Layer utilization (%)
system.membus.respLayer1.occupancy        45018024386                       # Layer occupancy (ticks)
system.membus.respLayer1.utilization              3.0                       # Layer utilization (%)

---------- End Simulation Statistics   ----------
