
---------- Begin Simulation Statistics ----------
sim_seconds                                  0.055022                       # Number of seconds simulated
sim_ticks                                 55022273200                       # Number of ticks simulated
final_tick                                55022273200                       # Number of ticks from beginning of simulation (restored from checkpoints and never reset)
sim_freq                                 1000000000000                       # Frequency of simulated ticks
host_inst_rate                                 248144                       # Simulator instruction rate (inst/s)
host_op_rate                                   426820                       # Simulator op (including micro ops) rate (op/s)
host_tick_rate                              286234374                       # Simulator tick rate (ticks/s)
host_mem_usage                                 685836                       # Number of bytes of host memory used
host_seconds                                   192.23                       # Real time elapsed on the host
sim_insts                                    47700244                       # Number of instructions simulated
sim_ops                                      82046706                       # Number of ops (including micro ops) simulated
system.clk_domain.voltage_domain.voltage            1                       # Voltage in Volts
system.clk_domain.clock                           400                       # Clock period in ticks
system.mem_ctrl.pwrStateResidencyTicks::UNDEFINED  55022273200                       # Cumulative time (in ticks) in various power states
system.mem_ctrl.bytes_read::cpu.inst            74304                       # Number of bytes read from this memory
system.mem_ctrl.bytes_read::cpu.data          4159808                       # Number of bytes read from this memory
system.mem_ctrl.bytes_read::total             4234112                       # Number of bytes read from this memory
system.mem_ctrl.bytes_inst_read::cpu.inst        74304                       # Number of instructions bytes read from this memory
system.mem_ctrl.bytes_inst_read::total          74304                       # Number of instructions bytes read from this memory
system.mem_ctrl.bytes_written::writebacks        35584                       # Number of bytes written to this memory
system.mem_ctrl.bytes_written::total            35584                       # Number of bytes written to this memory
system.mem_ctrl.num_reads::cpu.inst              1161                       # Number of read requests responded to by this memory
system.mem_ctrl.num_reads::cpu.data             64997                       # Number of read requests responded to by this memory
system.mem_ctrl.num_reads::total                66158                       # Number of read requests responded to by this memory
system.mem_ctrl.num_writes::writebacks            556                       # Number of write requests responded to by this memory
system.mem_ctrl.num_writes::total                 556                       # Number of write requests responded to by this memory
system.mem_ctrl.bw_read::cpu.inst             1350435                       # Total read bandwidth from this memory (bytes/s)
system.mem_ctrl.bw_read::cpu.data            75602256                       # Total read bandwidth from this memory (bytes/s)
system.mem_ctrl.bw_read::total               76952691                       # Total read bandwidth from this memory (bytes/s)
system.mem_ctrl.bw_inst_read::cpu.inst        1350435                       # Instruction read bandwidth from this memory (bytes/s)
system.mem_ctrl.bw_inst_read::total           1350435                       # Instruction read bandwidth from this memory (bytes/s)
system.mem_ctrl.bw_write::writebacks           646720                       # Write bandwidth from this memory (bytes/s)
system.mem_ctrl.bw_write::total                646720                       # Write bandwidth from this memory (bytes/s)
system.mem_ctrl.bw_total::writebacks           646720                       # Total bandwidth to/from this memory (bytes/s)
system.mem_ctrl.bw_total::cpu.inst            1350435                       # Total bandwidth to/from this memory (bytes/s)
system.mem_ctrl.bw_total::cpu.data           75602256                       # Total bandwidth to/from this memory (bytes/s)
system.mem_ctrl.bw_total::total              77599411                       # Total bandwidth to/from this memory (bytes/s)
system.mem_ctrl.readReqs                        66158                       # Number of read requests accepted
system.mem_ctrl.writeReqs                         556                       # Number of write requests accepted
system.mem_ctrl.readBursts                      66158                       # Number of DRAM read bursts, including those serviced by the write queue
system.mem_ctrl.writeBursts                       556                       # Number of DRAM write bursts, including those merged in the write queue
system.mem_ctrl.bytesReadDRAM                 4230080                       # Total number of bytes read from DRAM
system.mem_ctrl.bytesReadWrQ                     4032                       # Total number of bytes read from write queue
system.mem_ctrl.bytesWritten                    30976                       # Total number of bytes written to DRAM
system.mem_ctrl.bytesReadSys                  4234112                       # Total read bytes from the system interface side
system.mem_ctrl.bytesWrittenSys                 35584                       # Total written bytes from the system interface side
system.mem_ctrl.servicedByWrQ                      63                       # Number of DRAM read bursts serviced by the write queue
system.mem_ctrl.mergedWrBursts                     55                       # Number of DRAM write bursts merged with an existing one
system.mem_ctrl.neitherReadNorWriteReqs             0                       # Number of requests that are neither read nor write
system.mem_ctrl.perBankRdBursts::0               4216                       # Per bank write bursts
system.mem_ctrl.perBankRdBursts::1               4207                       # Per bank write bursts
system.mem_ctrl.perBankRdBursts::2               4178                       # Per bank write bursts
system.mem_ctrl.perBankRdBursts::3               4125                       # Per bank write bursts
system.mem_ctrl.perBankRdBursts::4               4260                       # Per bank write bursts
system.mem_ctrl.perBankRdBursts::5               4266                       # Per bank write bursts
system.mem_ctrl.perBankRdBursts::6               4264                       # Per bank write bursts
system.mem_ctrl.perBankRdBursts::7               4134                       # Per bank write bursts
system.mem_ctrl.perBankRdBursts::8               4062                       # Per bank write bursts
system.mem_ctrl.perBankRdBursts::9               4143                       # Per bank write bursts
system.mem_ctrl.perBankRdBursts::10              4208                       # Per bank write bursts
system.mem_ctrl.perBankRdBursts::11              4095                       # Per bank write bursts
system.mem_ctrl.perBankRdBursts::12              3879                       # Per bank write bursts
system.mem_ctrl.perBankRdBursts::13              3916                       # Per bank write bursts
system.mem_ctrl.perBankRdBursts::14              3978                       # Per bank write bursts
system.mem_ctrl.perBankRdBursts::15              4164                       # Per bank write bursts
system.mem_ctrl.perBankWrBursts::0                 26                       # Per bank write bursts
system.mem_ctrl.perBankWrBursts::1                 36                       # Per bank write bursts
system.mem_ctrl.perBankWrBursts::2                  0                       # Per bank write bursts
system.mem_ctrl.perBankWrBursts::3                  3                       # Per bank write bursts
system.mem_ctrl.perBankWrBursts::4                 49                       # Per bank write bursts
system.mem_ctrl.perBankWrBursts::5                 84                       # Per bank write bursts
system.mem_ctrl.perBankWrBursts::6                 83                       # Per bank write bursts
system.mem_ctrl.perBankWrBursts::7                 55                       # Per bank write bursts
system.mem_ctrl.perBankWrBursts::8                  1                       # Per bank write bursts
system.mem_ctrl.perBankWrBursts::9                 38                       # Per bank write bursts
system.mem_ctrl.perBankWrBursts::10                64                       # Per bank write bursts
system.mem_ctrl.perBankWrBursts::11                11                       # Per bank write bursts
system.mem_ctrl.perBankWrBursts::12                 2                       # Per bank write bursts
system.mem_ctrl.perBankWrBursts::13                 0                       # Per bank write bursts
system.mem_ctrl.perBankWrBursts::14                20                       # Per bank write bursts
system.mem_ctrl.perBankWrBursts::15                12                       # Per bank write bursts
system.mem_ctrl.numRdRetry                          0                       # Number of times read queue was full causing retry
system.mem_ctrl.numWrRetry                          0                       # Number of times write queue was full causing retry
system.mem_ctrl.totGap                    55022202400                       # Total gap between requests
system.mem_ctrl.readPktSize::0                      0                       # Read request sizes (log2)
system.mem_ctrl.readPktSize::1                      0                       # Read request sizes (log2)
system.mem_ctrl.readPktSize::2                      0                       # Read request sizes (log2)
system.mem_ctrl.readPktSize::3                      0                       # Read request sizes (log2)
system.mem_ctrl.readPktSize::4                      0                       # Read request sizes (log2)
system.mem_ctrl.readPktSize::5                      0                       # Read request sizes (log2)
system.mem_ctrl.readPktSize::6                  66158                       # Read request sizes (log2)
system.mem_ctrl.writePktSize::0                     0                       # Write request sizes (log2)
system.mem_ctrl.writePktSize::1                     0                       # Write request sizes (log2)
system.mem_ctrl.writePktSize::2                     0                       # Write request sizes (log2)
system.mem_ctrl.writePktSize::3                     0                       # Write request sizes (log2)
system.mem_ctrl.writePktSize::4                     0                       # Write request sizes (log2)
system.mem_ctrl.writePktSize::5                     0                       # Write request sizes (log2)
system.mem_ctrl.writePktSize::6                   556                       # Write request sizes (log2)
system.mem_ctrl.rdQLenPdf::0                    65814                       # What read queue length does an incoming req see
system.mem_ctrl.rdQLenPdf::1                      265                       # What read queue length does an incoming req see
system.mem_ctrl.rdQLenPdf::2                       16                       # What read queue length does an incoming req see
system.mem_ctrl.rdQLenPdf::3                        0                       # What read queue length does an incoming req see
system.mem_ctrl.rdQLenPdf::4                        0                       # What read queue length does an incoming req see
system.mem_ctrl.rdQLenPdf::5                        0                       # What read queue length does an incoming req see
system.mem_ctrl.rdQLenPdf::6                        0                       # What read queue length does an incoming req see
system.mem_ctrl.rdQLenPdf::7                        0                       # What read queue length does an incoming req see
system.mem_ctrl.rdQLenPdf::8                        0                       # What read queue length does an incoming req see
system.mem_ctrl.rdQLenPdf::9                        0                       # What read queue length does an incoming req see
system.mem_ctrl.rdQLenPdf::10                       0                       # What read queue length does an incoming req see
system.mem_ctrl.rdQLenPdf::11                       0                       # What read queue length does an incoming req see
system.mem_ctrl.rdQLenPdf::12                       0                       # What read queue length does an incoming req see
system.mem_ctrl.rdQLenPdf::13                       0                       # What read queue length does an incoming req see
system.mem_ctrl.rdQLenPdf::14                       0                       # What read queue length does an incoming req see
system.mem_ctrl.rdQLenPdf::15                       0                       # What read queue length does an incoming req see
system.mem_ctrl.rdQLenPdf::16                       0                       # What read queue length does an incoming req see
system.mem_ctrl.rdQLenPdf::17                       0                       # What read queue length does an incoming req see
system.mem_ctrl.rdQLenPdf::18                       0                       # What read queue length does an incoming req see
system.mem_ctrl.rdQLenPdf::19                       0                       # What read queue length does an incoming req see
system.mem_ctrl.rdQLenPdf::20                       0                       # What read queue length does an incoming req see
system.mem_ctrl.rdQLenPdf::21                       0                       # What read queue length does an incoming req see
system.mem_ctrl.rdQLenPdf::22                       0                       # What read queue length does an incoming req see
system.mem_ctrl.rdQLenPdf::23                       0                       # What read queue length does an incoming req see
system.mem_ctrl.rdQLenPdf::24                       0                       # What read queue length does an incoming req see
system.mem_ctrl.rdQLenPdf::25                       0                       # What read queue length does an incoming req see
system.mem_ctrl.rdQLenPdf::26                       0                       # What read queue length does an incoming req see
system.mem_ctrl.rdQLenPdf::27                       0                       # What read queue length does an incoming req see
system.mem_ctrl.rdQLenPdf::28                       0                       # What read queue length does an incoming req see
system.mem_ctrl.rdQLenPdf::29                       0                       # What read queue length does an incoming req see
system.mem_ctrl.rdQLenPdf::30                       0                       # What read queue length does an incoming req see
system.mem_ctrl.rdQLenPdf::31                       0                       # What read queue length does an incoming req see
system.mem_ctrl.wrQLenPdf::0                        1                       # What write queue length does an incoming req see
system.mem_ctrl.wrQLenPdf::1                        1                       # What write queue length does an incoming req see
system.mem_ctrl.wrQLenPdf::2                        1                       # What write queue length does an incoming req see
system.mem_ctrl.wrQLenPdf::3                        1                       # What write queue length does an incoming req see
system.mem_ctrl.wrQLenPdf::4                        1                       # What write queue length does an incoming req see
system.mem_ctrl.wrQLenPdf::5                        1                       # What write queue length does an incoming req see
system.mem_ctrl.wrQLenPdf::6                        1                       # What write queue length does an incoming req see
system.mem_ctrl.wrQLenPdf::7                        1                       # What write queue length does an incoming req see
system.mem_ctrl.wrQLenPdf::8                        1                       # What write queue length does an incoming req see
system.mem_ctrl.wrQLenPdf::9                        1                       # What write queue length does an incoming req see
system.mem_ctrl.wrQLenPdf::10                       1                       # What write queue length does an incoming req see
system.mem_ctrl.wrQLenPdf::11                       1                       # What write queue length does an incoming req see
system.mem_ctrl.wrQLenPdf::12                       1                       # What write queue length does an incoming req see
system.mem_ctrl.wrQLenPdf::13                       1                       # What write queue length does an incoming req see
system.mem_ctrl.wrQLenPdf::14                       1                       # What write queue length does an incoming req see
system.mem_ctrl.wrQLenPdf::15                      11                       # What write queue length does an incoming req see
system.mem_ctrl.wrQLenPdf::16                      11                       # What write queue length does an incoming req see
system.mem_ctrl.wrQLenPdf::17                      28                       # What write queue length does an incoming req see
system.mem_ctrl.wrQLenPdf::18                      29                       # What write queue length does an incoming req see
system.mem_ctrl.wrQLenPdf::19                      29                       # What write queue length does an incoming req see
system.mem_ctrl.wrQLenPdf::20                      29                       # What write queue length does an incoming req see
system.mem_ctrl.wrQLenPdf::21                      29                       # What write queue length does an incoming req see
system.mem_ctrl.wrQLenPdf::22                      29                       # What write queue length does an incoming req see
system.mem_ctrl.wrQLenPdf::23                      29                       # What write queue length does an incoming req see
system.mem_ctrl.wrQLenPdf::24                      29                       # What write queue length does an incoming req see
system.mem_ctrl.wrQLenPdf::25                      29                       # What write queue length does an incoming req see
system.mem_ctrl.wrQLenPdf::26                      29                       # What write queue length does an incoming req see
system.mem_ctrl.wrQLenPdf::27                      29                       # What write queue length does an incoming req see
system.mem_ctrl.wrQLenPdf::28                      29                       # What write queue length does an incoming req see
system.mem_ctrl.wrQLenPdf::29                      30                       # What write queue length does an incoming req see
system.mem_ctrl.wrQLenPdf::30                      29                       # What write queue length does an incoming req see
system.mem_ctrl.wrQLenPdf::31                      29                       # What write queue length does an incoming req see
system.mem_ctrl.wrQLenPdf::32                      29                       # What write queue length does an incoming req see
system.mem_ctrl.wrQLenPdf::33                       0                       # What write queue length does an incoming req see
system.mem_ctrl.wrQLenPdf::34                       0                       # What write queue length does an incoming req see
system.mem_ctrl.wrQLenPdf::35                       0                       # What write queue length does an incoming req see
system.mem_ctrl.wrQLenPdf::36                       0                       # What write queue length does an incoming req see
system.mem_ctrl.wrQLenPdf::37                       0                       # What write queue length does an incoming req see
system.mem_ctrl.wrQLenPdf::38                       0                       # What write queue length does an incoming req see
system.mem_ctrl.wrQLenPdf::39                       0                       # What write queue length does an incoming req see
system.mem_ctrl.wrQLenPdf::40                       0                       # What write queue length does an incoming req see
system.mem_ctrl.wrQLenPdf::41                       0                       # What write queue length does an incoming req see
system.mem_ctrl.wrQLenPdf::42                       0                       # What write queue length does an incoming req see
system.mem_ctrl.wrQLenPdf::43                       0                       # What write queue length does an incoming req see
system.mem_ctrl.wrQLenPdf::44                       0                       # What write queue length does an incoming req see
system.mem_ctrl.wrQLenPdf::45                       0                       # What write queue length does an incoming req see
system.mem_ctrl.wrQLenPdf::46                       0                       # What write queue length does an incoming req see
system.mem_ctrl.wrQLenPdf::47                       0                       # What write queue length does an incoming req see
system.mem_ctrl.wrQLenPdf::48                       0                       # What write queue length does an incoming req see
system.mem_ctrl.wrQLenPdf::49                       0                       # What write queue length does an incoming req see
system.mem_ctrl.wrQLenPdf::50                       0                       # What write queue length does an incoming req see
system.mem_ctrl.wrQLenPdf::51                       0                       # What write queue length does an incoming req see
system.mem_ctrl.wrQLenPdf::52                       0                       # What write queue length does an incoming req see
system.mem_ctrl.wrQLenPdf::53                       0                       # What write queue length does an incoming req see
system.mem_ctrl.wrQLenPdf::54                       0                       # What write queue length does an incoming req see
system.mem_ctrl.wrQLenPdf::55                       0                       # What write queue length does an incoming req see
system.mem_ctrl.wrQLenPdf::56                       0                       # What write queue length does an incoming req see
system.mem_ctrl.wrQLenPdf::57                       0                       # What write queue length does an incoming req see
system.mem_ctrl.wrQLenPdf::58                       0                       # What write queue length does an incoming req see
system.mem_ctrl.wrQLenPdf::59                       0                       # What write queue length does an incoming req see
system.mem_ctrl.wrQLenPdf::60                       0                       # What write queue length does an incoming req see
system.mem_ctrl.wrQLenPdf::61                       0                       # What write queue length does an incoming req see
system.mem_ctrl.wrQLenPdf::62                       0                       # What write queue length does an incoming req see
system.mem_ctrl.wrQLenPdf::63                       0                       # What write queue length does an incoming req see
system.mem_ctrl.bytesPerActivate::samples         6212                       # Bytes accessed per row activation
system.mem_ctrl.bytesPerActivate::mean     685.723117                       # Bytes accessed per row activation
system.mem_ctrl.bytesPerActivate::gmean    489.571101                       # Bytes accessed per row activation
system.mem_ctrl.bytesPerActivate::stdev    407.744912                       # Bytes accessed per row activation
system.mem_ctrl.bytesPerActivate::0-127           233      3.75%      3.75% # Bytes accessed per row activation
system.mem_ctrl.bytesPerActivate::128-255         1600     25.76%     29.51% # Bytes accessed per row activation
system.mem_ctrl.bytesPerActivate::256-383          263      4.23%     33.74% # Bytes accessed per row activation
system.mem_ctrl.bytesPerActivate::384-511          241      3.88%     37.62% # Bytes accessed per row activation
system.mem_ctrl.bytesPerActivate::512-639           40      0.64%     38.26% # Bytes accessed per row activation
system.mem_ctrl.bytesPerActivate::640-767          158      2.54%     40.81% # Bytes accessed per row activation
system.mem_ctrl.bytesPerActivate::768-895          136      2.19%     43.00% # Bytes accessed per row activation
system.mem_ctrl.bytesPerActivate::896-1023          199      3.20%     46.20% # Bytes accessed per row activation
system.mem_ctrl.bytesPerActivate::1024-1151         3342     53.80%    100.00% # Bytes accessed per row activation
system.mem_ctrl.bytesPerActivate::total          6212                       # Bytes accessed per row activation
system.mem_ctrl.rdPerTurnAround::samples           29                       # Reads before turning the bus around for writes
system.mem_ctrl.rdPerTurnAround::mean     2279.068966                       # Reads before turning the bus around for writes
system.mem_ctrl.rdPerTurnAround::gmean      37.907037                       # Reads before turning the bus around for writes
system.mem_ctrl.rdPerTurnAround::stdev   11226.267227                       # Reads before turning the bus around for writes
system.mem_ctrl.rdPerTurnAround::0-2047            27     93.10%     93.10% # Reads before turning the bus around for writes
system.mem_ctrl.rdPerTurnAround::2048-4095            1      3.45%     96.55% # Reads before turning the bus around for writes
system.mem_ctrl.rdPerTurnAround::59392-61439            1      3.45%    100.00% # Reads before turning the bus around for writes
system.mem_ctrl.rdPerTurnAround::total             29                       # Reads before turning the bus around for writes
system.mem_ctrl.wrPerTurnAround::samples           29                       # Writes before turning the bus around for reads
system.mem_ctrl.wrPerTurnAround::mean       16.689655                       # Writes before turning the bus around for reads
system.mem_ctrl.wrPerTurnAround::gmean      16.663214                       # Writes before turning the bus around for reads
system.mem_ctrl.wrPerTurnAround::stdev       0.967451                       # Writes before turning the bus around for reads
system.mem_ctrl.wrPerTurnAround::16                19     65.52%     65.52% # Writes before turning the bus around for reads
system.mem_ctrl.wrPerTurnAround::18                10     34.48%    100.00% # Writes before turning the bus around for reads
system.mem_ctrl.wrPerTurnAround::total             29                       # Writes before turning the bus around for reads
system.mem_ctrl.totQLat                     738939252                       # Total ticks spent queuing
system.mem_ctrl.totMemAccLat               1852111242                       # Total ticks spent from burst creation until serviced by the DRAM
system.mem_ctrl.totBusLat                   247988440                       # Total ticks spent in databus transfers
system.mem_ctrl.avgQLat                      11179.96                       # Average queueing delay per DRAM burst
system.mem_ctrl.avgBusLat                     3752.00                       # Average bus latency per DRAM burst
system.mem_ctrl.avgMemAccLat                 28021.96                       # Average memory access latency per DRAM burst
system.mem_ctrl.avgRdBW                         76.88                       # Average DRAM read bandwidth in MiByte/s
system.mem_ctrl.avgWrBW                          0.56                       # Average achieved write bandwidth in MiByte/s
system.mem_ctrl.avgRdBWSys                      76.95                       # Average system read bandwidth in MiByte/s
system.mem_ctrl.avgWrBWSys                       0.65                       # Average system write bandwidth in MiByte/s
system.mem_ctrl.peakBW                       17057.00                       # Theoretical peak bandwidth in MiByte/s
system.mem_ctrl.busUtil                          0.45                       # Data bus utilization in percentage
system.mem_ctrl.busUtilRead                      0.45                       # Data bus utilization in percentage for reads
system.mem_ctrl.busUtilWrite                     0.00                       # Data bus utilization in percentage for writes
system.mem_ctrl.avgRdQLen                        1.00                       # Average read queue length when enqueuing
system.mem_ctrl.avgWrQLen                       22.18                       # Average write queue length when enqueuing
system.mem_ctrl.readRowHits                     59966                       # Number of row buffer hits during reads
system.mem_ctrl.writeRowHits                      394                       # Number of row buffer hits during writes
system.mem_ctrl.readRowHitRate                  90.73                       # Row buffer hit rate for reads
system.mem_ctrl.writeRowHitRate                 78.64                       # Row buffer hit rate for writes
system.mem_ctrl.avgGap                      824747.47                       # Average gap between requests
system.mem_ctrl.pageHitRate                     90.64                       # Row buffer hit rate, read and write combined
system.mem_ctrl_0.actEnergy              33850934.208000                       # Energy for activate commands per rank (pJ)
system.mem_ctrl_0.preEnergy              16687672.848000                       # Energy for precharge commands per rank (pJ)
system.mem_ctrl_0.readEnergy             222713467.200000                       # Energy for read commands per rank (pJ)
system.mem_ctrl_0.writeEnergy            1709471.232000                       # Energy for write commands per rank (pJ)
system.mem_ctrl_0.refreshEnergy          691665036.384000                       # Energy for refresh commands per rank (pJ)
system.mem_ctrl_0.actBackEnergy          569766068.256000                       # Energy for active background per rank (pJ)
system.mem_ctrl_0.preBackEnergy          31607725.968000                       # Energy for precharge background per rank (pJ)
system.mem_ctrl_0.actPowerDownEnergy     3378383449.056000                       # Energy for active power-down per rank (pJ)
system.mem_ctrl_0.prePowerDownEnergy     295870702.344000                       # Energy for precharge power-down per rank (pJ)
system.mem_ctrl_0.selfRefreshEnergy      11275239475.584000                       # Energy for self refresh per rank (pJ)
system.mem_ctrl_0.totalEnergy            16517494003.080000                       # Total energy per rank (pJ)
system.mem_ctrl_0.averagePower             300.196502                       # Core power per rank (mW)
system.mem_ctrl_0.totalIdleTime           53871962600                       # Total Idle time Per DRAM Rank
system.mem_ctrl_0.memoryStateTime::IDLE      24051600                       # Time in different power states
system.mem_ctrl_0.memoryStateTime::REF      279184000                       # Time in different power states
system.mem_ctrl_0.memoryStateTime::SREF   46900135530                       # Time in different power states
system.mem_ctrl_0.memoryStateTime::PRE_PDN    573383274                       # Time in different power states
system.mem_ctrl_0.memoryStateTime::ACT      847075000                       # Time in different power states
system.mem_ctrl_0.memoryStateTime::ACT_PDN   6398443796                       # Time in different power states
system.mem_ctrl_1.actEnergy              31670061.696000                       # Energy for activate commands per rank (pJ)
system.mem_ctrl_1.preEnergy              15616416.816000                       # Energy for precharge commands per rank (pJ)
system.mem_ctrl_1.readEnergy             214738140.960000                       # Energy for read commands per rank (pJ)
system.mem_ctrl_1.writeEnergy            752981.376000                       # Energy for write commands per rank (pJ)
system.mem_ctrl_1.refreshEnergy          672326778.144000                       # Energy for refresh commands per rank (pJ)
system.mem_ctrl_1.actBackEnergy          550754864.352000                       # Energy for active background per rank (pJ)
system.mem_ctrl_1.preBackEnergy          32542289.136000                       # Energy for precharge background per rank (pJ)
system.mem_ctrl_1.actPowerDownEnergy     3275485914.624000                       # Energy for active power-down per rank (pJ)
system.mem_ctrl_1.prePowerDownEnergy     291336031.392000                       # Energy for precharge power-down per rank (pJ)
system.mem_ctrl_1.selfRefreshEnergy      11332256518.463999                       # Energy for self refresh per rank (pJ)
system.mem_ctrl_1.totalEnergy            16417479996.960001                       # Total energy per rank (pJ)
system.mem_ctrl_1.averagePower             298.378802                       # Core power per rank (mW)
system.mem_ctrl_1.totalIdleTime           53905838908                       # Total Idle time Per DRAM Rank
system.mem_ctrl_1.memoryStateTime::IDLE      27251200                       # Time in different power states
system.mem_ctrl_1.memoryStateTime::REF      271396000                       # Time in different power states
system.mem_ctrl_1.memoryStateTime::SREF   47137706030                       # Time in different power states
system.mem_ctrl_1.memoryStateTime::PRE_PDN    564609000                       # Time in different power states
system.mem_ctrl_1.memoryStateTime::ACT      817748734                       # Time in different power states
system.mem_ctrl_1.memoryStateTime::ACT_PDN   6203562236                       # Time in different power states
system.pwrStateResidencyTicks::UNDEFINED  55022273200                       # Cumulative time (in ticks) in various power states
system.cpu.branchPred.lookups                      82                       # Number of BP lookups
system.cpu.branchPred.condPredicted                82                       # Number of conditional branches predicted
system.cpu.branchPred.condIncorrect                32                       # Number of conditional branches incorrect
system.cpu.branchPred.BTBLookups                   37                       # Number of BTB lookups
system.cpu.branchPred.BTBHits                       0                       # Number of BTB hits
system.cpu.branchPred.BTBCorrect                    0                       # Number of correct BTB predictions (this stat may not work properly.
system.cpu.branchPred.BTBHitPct              0.000000                       # BTB Hit Percentage
system.cpu.branchPred.usedRAS                       0                       # Number of times the RAS was used to get a target.
system.cpu.branchPred.RASInCorrect                  0                       # Number of incorrect RAS predictions.
system.cpu.branchPred.indirectLookups              37                       # Number of indirect predictor lookups.
system.cpu.branchPred.indirectHits                  0                       # Number of indirect target hits.
system.cpu.branchPred.indirectMisses               37                       # Number of indirect misses.
system.cpu.branchPredindirectMispredicted           12                       # Number of mispredicted indirect branches.
system.cpu.dtb.walker.pwrStateResidencyTicks::UNDEFINED  55022273200                       # Cumulative time (in ticks) in various power states
system.cpu.dtb.rdAccesses                    26909321                       # TLB accesses on read requests
system.cpu.dtb.wrAccesses                     7334873                       # TLB accesses on write requests
system.cpu.dtb.rdMisses                          2851                       # TLB misses on read requests
system.cpu.dtb.wrMisses                        116849                       # TLB misses on write requests
system.cpu.apic_clk_domain.clock                 6400                       # Clock period in ticks
system.cpu.interrupts.pwrStateResidencyTicks::UNDEFINED  55022273200                       # Cumulative time (in ticks) in various power states
system.cpu.itb.walker.pwrStateResidencyTicks::UNDEFINED  55022273200                       # Cumulative time (in ticks) in various power states
system.cpu.itb.rdAccesses                           0                       # TLB accesses on read requests
system.cpu.itb.wrAccesses                    18313193                       # TLB accesses on write requests
system.cpu.itb.rdMisses                             0                       # TLB misses on read requests
system.cpu.itb.wrMisses                            90                       # TLB misses on write requests
system.cpu.workload.numSyscalls                    33                       # Number of system calls
system.cpu.pwrStateResidencyTicks::ON     55022273200                       # Cumulative time (in ticks) in various power states
system.cpu.numCycles                        137555683                       # number of cpu cycles simulated
system.cpu.numWorkItemsStarted                      0                       # number of work items this cpu started
system.cpu.numWorkItemsCompleted                    0                       # number of work items this cpu completed
system.cpu.committedInsts                    47700244                       # Number of instructions committed
system.cpu.committedOps                      82046706                       # Number of ops (including micro ops) committed
system.cpu.discardedOps                      13326301                       # Number of ops (including micro ops) which were discarded before commit
system.cpu.numFetchSuspends                         0                       # Number of times Execute suspended instruction fetching
system.cpu.cpi                               2.883752                       # CPI: cycles per instruction
system.cpu.ipc                               0.346770                       # IPC: instructions per cycle
system.cpu.op_class_0::No_OpClass                1287      0.00%      0.00% # Class of committed instruction
system.cpu.op_class_0::IntAlu                50852257     61.98%     61.98% # Class of committed instruction
system.cpu.op_class_0::IntMult                   1192      0.00%     61.98% # Class of committed instruction
system.cpu.op_class_0::IntDiv                    1131      0.00%     61.98% # Class of committed instruction
system.cpu.op_class_0::FloatAdd                  2227      0.00%     61.99% # Class of committed instruction
system.cpu.op_class_0::FloatCmp                     0      0.00%     61.99% # Class of committed instruction
system.cpu.op_class_0::FloatCvt                     0      0.00%     61.99% # Class of committed instruction
system.cpu.op_class_0::FloatMult                    0      0.00%     61.99% # Class of committed instruction
system.cpu.op_class_0::FloatMultAcc                 0      0.00%     61.99% # Class of committed instruction
system.cpu.op_class_0::FloatDiv                     0      0.00%     61.99% # Class of committed instruction
system.cpu.op_class_0::FloatMisc                    0      0.00%     61.99% # Class of committed instruction
system.cpu.op_class_0::FloatSqrt                    0      0.00%     61.99% # Class of committed instruction
system.cpu.op_class_0::SimdAdd                      0      0.00%     61.99% # Class of committed instruction
system.cpu.op_class_0::SimdAddAcc                   0      0.00%     61.99% # Class of committed instruction
system.cpu.op_class_0::SimdAlu                      0      0.00%     61.99% # Class of committed instruction
system.cpu.op_class_0::SimdCmp                      0      0.00%     61.99% # Class of committed instruction
system.cpu.op_class_0::SimdCvt                      0      0.00%     61.99% # Class of committed instruction
system.cpu.op_class_0::SimdMisc                     0      0.00%     61.99% # Class of committed instruction
system.cpu.op_class_0::SimdMult                     0      0.00%     61.99% # Class of committed instruction
system.cpu.op_class_0::SimdMultAcc                  0      0.00%     61.99% # Class of committed instruction
system.cpu.op_class_0::SimdShift                    0      0.00%     61.99% # Class of committed instruction
system.cpu.op_class_0::SimdShiftAcc                 0      0.00%     61.99% # Class of committed instruction
system.cpu.op_class_0::SimdSqrt                     0      0.00%     61.99% # Class of committed instruction
system.cpu.op_class_0::SimdFloatAdd                 0      0.00%     61.99% # Class of committed instruction
system.cpu.op_class_0::SimdFloatAlu                 0      0.00%     61.99% # Class of committed instruction
system.cpu.op_class_0::SimdFloatCmp                 0      0.00%     61.99% # Class of committed instruction
system.cpu.op_class_0::SimdFloatCvt                 0      0.00%     61.99% # Class of committed instruction
system.cpu.op_class_0::SimdFloatDiv                 0      0.00%     61.99% # Class of committed instruction
system.cpu.op_class_0::SimdFloatMisc                0      0.00%     61.99% # Class of committed instruction
system.cpu.op_class_0::SimdFloatMult                0      0.00%     61.99% # Class of committed instruction
system.cpu.op_class_0::SimdFloatMultAcc             0      0.00%     61.99% # Class of committed instruction
system.cpu.op_class_0::SimdFloatSqrt                0      0.00%     61.99% # Class of committed instruction
system.cpu.op_class_0::MemRead               23853209     29.07%     91.06% # Class of committed instruction
system.cpu.op_class_0::MemWrite               7334237      8.94%    100.00% # Class of committed instruction
system.cpu.op_class_0::FloatMemRead               782      0.00%    100.00% # Class of committed instruction
system.cpu.op_class_0::FloatMemWrite              384      0.00%    100.00% # Class of committed instruction
system.cpu.op_class_0::IprAccess                    0      0.00%    100.00% # Class of committed instruction
system.cpu.op_class_0::InstPrefetch                 0      0.00%    100.00% # Class of committed instruction
system.cpu.op_class_0::total                 82046706                       # Class of committed instruction
system.cpu.tickCycles                       126542588                       # Number of cycles that the object actually ticked
system.cpu.idleCycles                        11013095                       # Total number of cycles that the object has spent stopped
system.cpu.dcache.tags.pwrStateResidencyTicks::UNDEFINED  55022273200                       # Cumulative time (in ticks) in various power states
system.cpu.dcache.tags.replacements           1287862                       # number of replacements
system.cpu.dcache.tags.tagsinuse          1021.941019                       # Cycle average of tags in use
system.cpu.dcache.tags.total_refs            32888208                       # Total number of references to valid blocks.
system.cpu.dcache.tags.sampled_refs           1288886                       # Sample count of references to valid blocks.
system.cpu.dcache.tags.avg_refs             25.516770                       # Average number of references to valid blocks.
system.cpu.dcache.tags.warmup_cycle         338452800                       # Cycle when the warmup percentage was hit.
system.cpu.dcache.tags.occ_blocks::cpu.data  1021.941019                       # Average occupied blocks per requestor
system.cpu.dcache.tags.occ_percent::cpu.data     0.997989                       # Average percentage of cache occupancy
system.cpu.dcache.tags.occ_percent::total     0.997989                       # Average percentage of cache occupancy
system.cpu.dcache.tags.occ_task_id_blocks::1024         1024                       # Occupied blocks per task id
system.cpu.dcache.tags.age_task_id_blocks_1024::0           36                       # Occupied blocks per task id
system.cpu.dcache.tags.age_task_id_blocks_1024::1          309                       # Occupied blocks per task id
system.cpu.dcache.tags.age_task_id_blocks_1024::2          679                       # Occupied blocks per task id
system.cpu.dcache.tags.occ_task_id_percent::1024            1                       # Percentage of cache occupancy per task id
system.cpu.dcache.tags.tag_accesses          35528868                       # Number of tag accesses
system.cpu.dcache.tags.data_accesses         35528868                       # Number of data accesses
system.cpu.dcache.pwrStateResidencyTicks::UNDEFINED  55022273200                       # Cumulative time (in ticks) in various power states
system.cpu.dcache.ReadReq_hits::cpu.data     26832700                       # number of ReadReq hits
system.cpu.dcache.ReadReq_hits::total        26832700                       # number of ReadReq hits
system.cpu.dcache.WriteReq_hits::cpu.data      6055508                       # number of WriteReq hits
system.cpu.dcache.WriteReq_hits::total        6055508                       # number of WriteReq hits
system.cpu.dcache.demand_hits::cpu.data      32888208                       # number of demand (read+write) hits
system.cpu.dcache.demand_hits::total         32888208                       # number of demand (read+write) hits
system.cpu.dcache.overall_hits::cpu.data     32888208                       # number of overall hits
system.cpu.dcache.overall_hits::total        32888208                       # number of overall hits
system.cpu.dcache.ReadReq_misses::cpu.data        72661                       # number of ReadReq misses
system.cpu.dcache.ReadReq_misses::total         72661                       # number of ReadReq misses
system.cpu.dcache.WriteReq_misses::cpu.data      1279113                       # number of WriteReq misses
system.cpu.dcache.WriteReq_misses::total      1279113                       # number of WriteReq misses
system.cpu.dcache.demand_misses::cpu.data      1351774                       # number of demand (read+write) misses
system.cpu.dcache.demand_misses::total        1351774                       # number of demand (read+write) misses
system.cpu.dcache.overall_misses::cpu.data      1351774                       # number of overall misses
system.cpu.dcache.overall_misses::total       1351774                       # number of overall misses
system.cpu.dcache.ReadReq_miss_latency::cpu.data    878906400                       # number of ReadReq miss cycles
system.cpu.dcache.ReadReq_miss_latency::total    878906400                       # number of ReadReq miss cycles
system.cpu.dcache.WriteReq_miss_latency::cpu.data  20283614400                       # number of WriteReq miss cycles
system.cpu.dcache.WriteReq_miss_latency::total  20283614400                       # number of WriteReq miss cycles
system.cpu.dcache.demand_miss_latency::cpu.data  21162520800                       # number of demand (read+write) miss cycles
system.cpu.dcache.demand_miss_latency::total  21162520800                       # number of demand (read+write) miss cycles
system.cpu.dcache.overall_miss_latency::cpu.data  21162520800                       # number of overall miss cycles
system.cpu.dcache.overall_miss_latency::total  21162520800                       # number of overall miss cycles
system.cpu.dcache.ReadReq_accesses::cpu.data     26905361                       # number of ReadReq accesses(hits+misses)
system.cpu.dcache.ReadReq_accesses::total     26905361                       # number of ReadReq accesses(hits+misses)
system.cpu.dcache.WriteReq_accesses::cpu.data      7334621                       # number of WriteReq accesses(hits+misses)
system.cpu.dcache.WriteReq_accesses::total      7334621                       # number of WriteReq accesses(hits+misses)
system.cpu.dcache.demand_accesses::cpu.data     34239982                       # number of demand (read+write) accesses
system.cpu.dcache.demand_accesses::total     34239982                       # number of demand (read+write) accesses
system.cpu.dcache.overall_accesses::cpu.data     34239982                       # number of overall (read+write) accesses
system.cpu.dcache.overall_accesses::total     34239982                       # number of overall (read+write) accesses
system.cpu.dcache.ReadReq_miss_rate::cpu.data     0.002701                       # miss rate for ReadReq accesses
system.cpu.dcache.ReadReq_miss_rate::total     0.002701                       # miss rate for ReadReq accesses
system.cpu.dcache.WriteReq_miss_rate::cpu.data     0.174394                       # miss rate for WriteReq accesses
system.cpu.dcache.WriteReq_miss_rate::total     0.174394                       # miss rate for WriteReq accesses
system.cpu.dcache.demand_miss_rate::cpu.data     0.039479                       # miss rate for demand accesses
system.cpu.dcache.demand_miss_rate::total     0.039479                       # miss rate for demand accesses
system.cpu.dcache.overall_miss_rate::cpu.data     0.039479                       # miss rate for overall accesses
system.cpu.dcache.overall_miss_rate::total     0.039479                       # miss rate for overall accesses
system.cpu.dcache.ReadReq_avg_miss_latency::cpu.data 12095.985467                       # average ReadReq miss latency
system.cpu.dcache.ReadReq_avg_miss_latency::total 12095.985467                       # average ReadReq miss latency
system.cpu.dcache.WriteReq_avg_miss_latency::cpu.data 15857.562545                       # average WriteReq miss latency
system.cpu.dcache.WriteReq_avg_miss_latency::total 15857.562545                       # average WriteReq miss latency
system.cpu.dcache.demand_avg_miss_latency::cpu.data 15655.369019                       # average overall miss latency
system.cpu.dcache.demand_avg_miss_latency::total 15655.369019                       # average overall miss latency
system.cpu.dcache.overall_avg_miss_latency::cpu.data 15655.369019                       # average overall miss latency
system.cpu.dcache.overall_avg_miss_latency::total 15655.369019                       # average overall miss latency
system.cpu.dcache.blocked_cycles::no_mshrs            0                       # number of cycles access was blocked
system.cpu.dcache.blocked_cycles::no_targets            0                       # number of cycles access was blocked
system.cpu.dcache.blocked::no_mshrs                 0                       # number of cycles access was blocked
system.cpu.dcache.blocked::no_targets               0                       # number of cycles access was blocked
system.cpu.dcache.avg_blocked_cycles::no_mshrs          nan                       # average number of cycles each access was blocked
system.cpu.dcache.avg_blocked_cycles::no_targets          nan                       # average number of cycles each access was blocked
system.cpu.dcache.writebacks::writebacks      1282893                       # number of writebacks
system.cpu.dcache.writebacks::total           1282893                       # number of writebacks
system.cpu.dcache.ReadReq_mshr_hits::cpu.data           23                       # number of ReadReq MSHR hits
system.cpu.dcache.ReadReq_mshr_hits::total           23                       # number of ReadReq MSHR hits
system.cpu.dcache.WriteReq_mshr_hits::cpu.data        62865                       # number of WriteReq MSHR hits
system.cpu.dcache.WriteReq_mshr_hits::total        62865                       # number of WriteReq MSHR hits
system.cpu.dcache.demand_mshr_hits::cpu.data        62888                       # number of demand (read+write) MSHR hits
system.cpu.dcache.demand_mshr_hits::total        62888                       # number of demand (read+write) MSHR hits
system.cpu.dcache.overall_mshr_hits::cpu.data        62888                       # number of overall MSHR hits
system.cpu.dcache.overall_mshr_hits::total        62888                       # number of overall MSHR hits
system.cpu.dcache.ReadReq_mshr_misses::cpu.data        72638                       # number of ReadReq MSHR misses
system.cpu.dcache.ReadReq_mshr_misses::total        72638                       # number of ReadReq MSHR misses
system.cpu.dcache.WriteReq_mshr_misses::cpu.data      1216248                       # number of WriteReq MSHR misses
system.cpu.dcache.WriteReq_mshr_misses::total      1216248                       # number of WriteReq MSHR misses
system.cpu.dcache.demand_mshr_misses::cpu.data      1288886                       # number of demand (read+write) MSHR misses
system.cpu.dcache.demand_mshr_misses::total      1288886                       # number of demand (read+write) MSHR misses
system.cpu.dcache.overall_mshr_misses::cpu.data      1288886                       # number of overall MSHR misses
system.cpu.dcache.overall_mshr_misses::total      1288886                       # number of overall MSHR misses
system.cpu.dcache.ReadReq_mshr_miss_latency::cpu.data    819020400                       # number of ReadReq MSHR miss cycles
system.cpu.dcache.ReadReq_mshr_miss_latency::total    819020400                       # number of ReadReq MSHR miss cycles
system.cpu.dcache.WriteReq_mshr_miss_latency::cpu.data  15474198800                       # number of WriteReq MSHR miss cycles
system.cpu.dcache.WriteReq_mshr_miss_latency::total  15474198800                       # number of WriteReq MSHR miss cycles
system.cpu.dcache.demand_mshr_miss_latency::cpu.data  16293219200                       # number of demand (read+write) MSHR miss cycles
system.cpu.dcache.demand_mshr_miss_latency::total  16293219200                       # number of demand (read+write) MSHR miss cycles
system.cpu.dcache.overall_mshr_miss_latency::cpu.data  16293219200                       # number of overall MSHR miss cycles
system.cpu.dcache.overall_mshr_miss_latency::total  16293219200                       # number of overall MSHR miss cycles
system.cpu.dcache.ReadReq_mshr_miss_rate::cpu.data     0.002700                       # mshr miss rate for ReadReq accesses
system.cpu.dcache.ReadReq_mshr_miss_rate::total     0.002700                       # mshr miss rate for ReadReq accesses
system.cpu.dcache.WriteReq_mshr_miss_rate::cpu.data     0.165823                       # mshr miss rate for WriteReq accesses
system.cpu.dcache.WriteReq_mshr_miss_rate::total     0.165823                       # mshr miss rate for WriteReq accesses
system.cpu.dcache.demand_mshr_miss_rate::cpu.data     0.037643                       # mshr miss rate for demand accesses
system.cpu.dcache.demand_mshr_miss_rate::total     0.037643                       # mshr miss rate for demand accesses
system.cpu.dcache.overall_mshr_miss_rate::cpu.data     0.037643                       # mshr miss rate for overall accesses
system.cpu.dcache.overall_mshr_miss_rate::total     0.037643                       # mshr miss rate for overall accesses
system.cpu.dcache.ReadReq_avg_mshr_miss_latency::cpu.data 11275.371018                       # average ReadReq mshr miss latency
system.cpu.dcache.ReadReq_avg_mshr_miss_latency::total 11275.371018                       # average ReadReq mshr miss latency
system.cpu.dcache.WriteReq_avg_mshr_miss_latency::cpu.data 12722.897633                       # average WriteReq mshr miss latency
system.cpu.dcache.WriteReq_avg_mshr_miss_latency::total 12722.897633                       # average WriteReq mshr miss latency
system.cpu.dcache.demand_avg_mshr_miss_latency::cpu.data 12641.319093                       # average overall mshr miss latency
system.cpu.dcache.demand_avg_mshr_miss_latency::total 12641.319093                       # average overall mshr miss latency
system.cpu.dcache.overall_avg_mshr_miss_latency::cpu.data 12641.319093                       # average overall mshr miss latency
system.cpu.dcache.overall_avg_mshr_miss_latency::total 12641.319093                       # average overall mshr miss latency
system.cpu.icache.tags.pwrStateResidencyTicks::UNDEFINED  55022273200                       # Cumulative time (in ticks) in various power states
system.cpu.icache.tags.replacements               911                       # number of replacements
system.cpu.icache.tags.tagsinuse           464.564826                       # Cycle average of tags in use
system.cpu.icache.tags.total_refs            18311796                       # Total number of references to valid blocks.
system.cpu.icache.tags.sampled_refs              1396                       # Sample count of references to valid blocks.
system.cpu.icache.tags.avg_refs          13117.332378                       # Average number of references to valid blocks.
system.cpu.icache.tags.warmup_cycle                 0                       # Cycle when the warmup percentage was hit.
system.cpu.icache.tags.occ_blocks::cpu.inst   464.564826                       # Average occupied blocks per requestor
system.cpu.icache.tags.occ_percent::cpu.inst     0.907353                       # Average percentage of cache occupancy
system.cpu.icache.tags.occ_percent::total     0.907353                       # Average percentage of cache occupancy
system.cpu.icache.tags.occ_task_id_blocks::1024          485                       # Occupied blocks per task id
system.cpu.icache.tags.age_task_id_blocks_1024::0          102                       # Occupied blocks per task id
system.cpu.icache.tags.age_task_id_blocks_1024::1          123                       # Occupied blocks per task id
system.cpu.icache.tags.age_task_id_blocks_1024::4          260                       # Occupied blocks per task id
system.cpu.icache.tags.occ_task_id_percent::1024     0.947266                       # Percentage of cache occupancy per task id
system.cpu.icache.tags.tag_accesses          18314589                       # Number of tag accesses
system.cpu.icache.tags.data_accesses         18314589                       # Number of data accesses
system.cpu.icache.pwrStateResidencyTicks::UNDEFINED  55022273200                       # Cumulative time (in ticks) in various power states
system.cpu.icache.ReadReq_hits::cpu.inst     18311796                       # number of ReadReq hits
system.cpu.icache.ReadReq_hits::total        18311796                       # number of ReadReq hits
system.cpu.icache.demand_hits::cpu.inst      18311796                       # number of demand (read+write) hits
system.cpu.icache.demand_hits::total         18311796                       # number of demand (read+write) hits
system.cpu.icache.overall_hits::cpu.inst     18311796                       # number of overall hits
system.cpu.icache.overall_hits::total        18311796                       # number of overall hits
system.cpu.icache.ReadReq_misses::cpu.inst         1397                       # number of ReadReq misses
system.cpu.icache.ReadReq_misses::total          1397                       # number of ReadReq misses
system.cpu.icache.demand_misses::cpu.inst         1397                       # number of demand (read+write) misses
system.cpu.icache.demand_misses::total           1397                       # number of demand (read+write) misses
system.cpu.icache.overall_misses::cpu.inst         1397                       # number of overall misses
system.cpu.icache.overall_misses::total          1397                       # number of overall misses
system.cpu.icache.ReadReq_miss_latency::cpu.inst     86582000                       # number of ReadReq miss cycles
system.cpu.icache.ReadReq_miss_latency::total     86582000                       # number of ReadReq miss cycles
system.cpu.icache.demand_miss_latency::cpu.inst     86582000                       # number of demand (read+write) miss cycles
system.cpu.icache.demand_miss_latency::total     86582000                       # number of demand (read+write) miss cycles
system.cpu.icache.overall_miss_latency::cpu.inst     86582000                       # number of overall miss cycles
system.cpu.icache.overall_miss_latency::total     86582000                       # number of overall miss cycles
system.cpu.icache.ReadReq_accesses::cpu.inst     18313193                       # number of ReadReq accesses(hits+misses)
system.cpu.icache.ReadReq_accesses::total     18313193                       # number of ReadReq accesses(hits+misses)
system.cpu.icache.demand_accesses::cpu.inst     18313193                       # number of demand (read+write) accesses
system.cpu.icache.demand_accesses::total     18313193                       # number of demand (read+write) accesses
system.cpu.icache.overall_accesses::cpu.inst     18313193                       # number of overall (read+write) accesses
system.cpu.icache.overall_accesses::total     18313193                       # number of overall (read+write) accesses
system.cpu.icache.ReadReq_miss_rate::cpu.inst     0.000076                       # miss rate for ReadReq accesses
system.cpu.icache.ReadReq_miss_rate::total     0.000076                       # miss rate for ReadReq accesses
system.cpu.icache.demand_miss_rate::cpu.inst     0.000076                       # miss rate for demand accesses
system.cpu.icache.demand_miss_rate::total     0.000076                       # miss rate for demand accesses
system.cpu.icache.overall_miss_rate::cpu.inst     0.000076                       # miss rate for overall accesses
system.cpu.icache.overall_miss_rate::total     0.000076                       # miss rate for overall accesses
system.cpu.icache.ReadReq_avg_miss_latency::cpu.inst 61977.093772                       # average ReadReq miss latency
system.cpu.icache.ReadReq_avg_miss_latency::total 61977.093772                       # average ReadReq miss latency
system.cpu.icache.demand_avg_miss_latency::cpu.inst 61977.093772                       # average overall miss latency
system.cpu.icache.demand_avg_miss_latency::total 61977.093772                       # average overall miss latency
system.cpu.icache.overall_avg_miss_latency::cpu.inst 61977.093772                       # average overall miss latency
system.cpu.icache.overall_avg_miss_latency::total 61977.093772                       # average overall miss latency
system.cpu.icache.blocked_cycles::no_mshrs            0                       # number of cycles access was blocked
system.cpu.icache.blocked_cycles::no_targets            0                       # number of cycles access was blocked
system.cpu.icache.blocked::no_mshrs                 0                       # number of cycles access was blocked
system.cpu.icache.blocked::no_targets               0                       # number of cycles access was blocked
system.cpu.icache.avg_blocked_cycles::no_mshrs          nan                       # average number of cycles each access was blocked
system.cpu.icache.avg_blocked_cycles::no_targets          nan                       # average number of cycles each access was blocked
system.cpu.icache.ReadReq_mshr_misses::cpu.inst         1397                       # number of ReadReq MSHR misses
system.cpu.icache.ReadReq_mshr_misses::total         1397                       # number of ReadReq MSHR misses
system.cpu.icache.demand_mshr_misses::cpu.inst         1397                       # number of demand (read+write) MSHR misses
system.cpu.icache.demand_mshr_misses::total         1397                       # number of demand (read+write) MSHR misses
system.cpu.icache.overall_mshr_misses::cpu.inst         1397                       # number of overall MSHR misses
system.cpu.icache.overall_mshr_misses::total         1397                       # number of overall MSHR misses
system.cpu.icache.ReadReq_mshr_miss_latency::cpu.inst     85465200                       # number of ReadReq MSHR miss cycles
system.cpu.icache.ReadReq_mshr_miss_latency::total     85465200                       # number of ReadReq MSHR miss cycles
system.cpu.icache.demand_mshr_miss_latency::cpu.inst     85465200                       # number of demand (read+write) MSHR miss cycles
system.cpu.icache.demand_mshr_miss_latency::total     85465200                       # number of demand (read+write) MSHR miss cycles
system.cpu.icache.overall_mshr_miss_latency::cpu.inst     85465200                       # number of overall MSHR miss cycles
system.cpu.icache.overall_mshr_miss_latency::total     85465200                       # number of overall MSHR miss cycles
system.cpu.icache.ReadReq_mshr_miss_rate::cpu.inst     0.000076                       # mshr miss rate for ReadReq accesses
system.cpu.icache.ReadReq_mshr_miss_rate::total     0.000076                       # mshr miss rate for ReadReq accesses
system.cpu.icache.demand_mshr_miss_rate::cpu.inst     0.000076                       # mshr miss rate for demand accesses
system.cpu.icache.demand_mshr_miss_rate::total     0.000076                       # mshr miss rate for demand accesses
system.cpu.icache.overall_mshr_miss_rate::cpu.inst     0.000076                       # mshr miss rate for overall accesses
system.cpu.icache.overall_mshr_miss_rate::total     0.000076                       # mshr miss rate for overall accesses
system.cpu.icache.ReadReq_avg_mshr_miss_latency::cpu.inst 61177.666428                       # average ReadReq mshr miss latency
system.cpu.icache.ReadReq_avg_mshr_miss_latency::total 61177.666428                       # average ReadReq mshr miss latency
system.cpu.icache.demand_avg_mshr_miss_latency::cpu.inst 61177.666428                       # average overall mshr miss latency
system.cpu.icache.demand_avg_mshr_miss_latency::total 61177.666428                       # average overall mshr miss latency
system.cpu.icache.overall_avg_mshr_miss_latency::cpu.inst 61177.666428                       # average overall mshr miss latency
system.cpu.icache.overall_avg_mshr_miss_latency::total 61177.666428                       # average overall mshr miss latency
system.l2bus.snoop_filter.tot_requests        2579056                       # Total number of requests made to the snoop filter.
system.l2bus.snoop_filter.hit_single_requests      1288775                       # Number of requests hitting in the snoop filter with a single holder of the requested data.
system.l2bus.snoop_filter.hit_multi_requests            5                       # Number of requests hitting in the snoop filter with multiple (>1) holders of the requested data.
system.l2bus.snoop_filter.tot_snoops              234                       # Total number of snoops made to the snoop filter.
system.l2bus.snoop_filter.hit_single_snoops          234                       # Number of snoops hitting in the snoop filter with a single holder of the requested data.
system.l2bus.snoop_filter.hit_multi_snoops            0                       # Number of snoops hitting in the snoop filter with multiple (>1) holders of the requested data.
system.l2bus.pwrStateResidencyTicks::UNDEFINED  55022273200                       # Cumulative time (in ticks) in various power states
system.l2bus.trans_dist::ReadResp               74034                       # Transaction distribution
system.l2bus.trans_dist::WritebackDirty       1283449                       # Transaction distribution
system.l2bus.trans_dist::CleanEvict              8014                       # Transaction distribution
system.l2bus.trans_dist::ReadExReq            1216248                       # Transaction distribution
system.l2bus.trans_dist::ReadExResp           1216248                       # Transaction distribution
system.l2bus.trans_dist::ReadSharedReq          74035                       # Transaction distribution
system.l2bus.pkt_count_system.cpu.icache.mem_side::system.l2cache.cpu_side         3704                       # Packet count per connected master and slave (bytes)
system.l2bus.pkt_count_system.cpu.dcache.mem_side::system.l2cache.cpu_side      3865634                       # Packet count per connected master and slave (bytes)
system.l2bus.pkt_count::total                 3869338                       # Packet count per connected master and slave (bytes)
system.l2bus.pkt_size_system.cpu.icache.mem_side::system.l2cache.cpu_side        89344                       # Cumulative packet size per connected master and slave (bytes)
system.l2bus.pkt_size_system.cpu.dcache.mem_side::system.l2cache.cpu_side    164593856                       # Cumulative packet size per connected master and slave (bytes)
system.l2bus.pkt_size::total                164683200                       # Cumulative packet size per connected master and slave (bytes)
system.l2bus.snoops                              2690                       # Total snoops (count)
system.l2bus.snoopTraffic                       35584                       # Total snoop traffic (bytes)
system.l2bus.snoop_fanout::samples            1292973                       # Request fanout histogram
system.l2bus.snoop_fanout::mean              0.000186                       # Request fanout histogram
system.l2bus.snoop_fanout::stdev             0.013651                       # Request fanout histogram
system.l2bus.snoop_fanout::underflows               0      0.00%      0.00% # Request fanout histogram
system.l2bus.snoop_fanout::0                  1292732     99.98%     99.98% # Request fanout histogram
system.l2bus.snoop_fanout::1                      241      0.02%    100.00% # Request fanout histogram
system.l2bus.snoop_fanout::2                        0      0.00%    100.00% # Request fanout histogram
system.l2bus.snoop_fanout::overflows                0      0.00%    100.00% # Request fanout histogram
system.l2bus.snoop_fanout::min_value                0                       # Request fanout histogram
system.l2bus.snoop_fanout::max_value                1                       # Request fanout histogram
system.l2bus.snoop_fanout::total              1292973                       # Request fanout histogram
system.l2bus.reqLayer0.occupancy           2057936800                       # Layer occupancy (ticks)
system.l2bus.reqLayer0.utilization                3.7                       # Layer utilization (%)
system.l2bus.respLayer0.occupancy             1675200                       # Layer occupancy (ticks)
system.l2bus.respLayer0.utilization               0.0                       # Layer utilization (%)
system.l2bus.respLayer1.occupancy          1546663200                       # Layer occupancy (ticks)
system.l2bus.respLayer1.utilization               2.8                       # Layer utilization (%)
system.l2cache.tags.pwrStateResidencyTicks::UNDEFINED  55022273200                       # Cumulative time (in ticks) in various power states
system.l2cache.tags.replacements                 2690                       # number of replacements
system.l2cache.tags.tagsinuse            55462.203205                       # Cycle average of tags in use
system.l2cache.tags.total_refs                2512794                       # Total number of references to valid blocks.
system.l2cache.tags.sampled_refs                66158                       # Sample count of references to valid blocks.
system.l2cache.tags.avg_refs                37.981710                       # Average number of references to valid blocks.
system.l2cache.tags.warmup_cycle                    0                       # Cycle when the warmup percentage was hit.
system.l2cache.tags.occ_blocks::cpu.inst   638.201162                       # Average occupied blocks per requestor
system.l2cache.tags.occ_blocks::cpu.data 54824.002043                       # Average occupied blocks per requestor
system.l2cache.tags.occ_percent::cpu.inst     0.009738                       # Average percentage of cache occupancy
system.l2cache.tags.occ_percent::cpu.data     0.836548                       # Average percentage of cache occupancy
system.l2cache.tags.occ_percent::total       0.846286                       # Average percentage of cache occupancy
system.l2cache.tags.occ_task_id_blocks::1024        63468                       # Occupied blocks per task id
system.l2cache.tags.age_task_id_blocks_1024::0          115                       # Occupied blocks per task id
system.l2cache.tags.age_task_id_blocks_1024::1          238                       # Occupied blocks per task id
system.l2cache.tags.age_task_id_blocks_1024::3            3                       # Occupied blocks per task id
system.l2cache.tags.age_task_id_blocks_1024::4        63112                       # Occupied blocks per task id
system.l2cache.tags.occ_task_id_percent::1024     0.968445                       # Percentage of cache occupancy per task id
system.l2cache.tags.tag_accesses             20698566                       # Number of tag accesses
system.l2cache.tags.data_accesses            20698566                       # Number of data accesses
system.l2cache.pwrStateResidencyTicks::UNDEFINED  55022273200                       # Cumulative time (in ticks) in various power states
system.l2cache.WritebackDirty_hits::writebacks      1282893                       # number of WritebackDirty hits
system.l2cache.WritebackDirty_hits::total      1282893                       # number of WritebackDirty hits
system.l2cache.ReadExReq_hits::cpu.data       1153184                       # number of ReadExReq hits
system.l2cache.ReadExReq_hits::total          1153184                       # number of ReadExReq hits
system.l2cache.ReadSharedReq_hits::cpu.inst          235                       # number of ReadSharedReq hits
system.l2cache.ReadSharedReq_hits::cpu.data        70705                       # number of ReadSharedReq hits
system.l2cache.ReadSharedReq_hits::total        70940                       # number of ReadSharedReq hits
system.l2cache.demand_hits::cpu.inst              235                       # number of demand (read+write) hits
system.l2cache.demand_hits::cpu.data          1223889                       # number of demand (read+write) hits
system.l2cache.demand_hits::total             1224124                       # number of demand (read+write) hits
system.l2cache.overall_hits::cpu.inst             235                       # number of overall hits
system.l2cache.overall_hits::cpu.data         1223889                       # number of overall hits
system.l2cache.overall_hits::total            1224124                       # number of overall hits
system.l2cache.ReadExReq_misses::cpu.data        63064                       # number of ReadExReq misses
system.l2cache.ReadExReq_misses::total          63064                       # number of ReadExReq misses
system.l2cache.ReadSharedReq_misses::cpu.inst         1162                       # number of ReadSharedReq misses
system.l2cache.ReadSharedReq_misses::cpu.data         1933                       # number of ReadSharedReq misses
system.l2cache.ReadSharedReq_misses::total         3095                       # number of ReadSharedReq misses
system.l2cache.demand_misses::cpu.inst           1162                       # number of demand (read+write) misses
system.l2cache.demand_misses::cpu.data          64997                       # number of demand (read+write) misses
system.l2cache.demand_misses::total             66159                       # number of demand (read+write) misses
system.l2cache.overall_misses::cpu.inst          1162                       # number of overall misses
system.l2cache.overall_misses::cpu.data         64997                       # number of overall misses
system.l2cache.overall_misses::total            66159                       # number of overall misses
system.l2cache.ReadExReq_miss_latency::cpu.data   4327952400                       # number of ReadExReq miss cycles
system.l2cache.ReadExReq_miss_latency::total   4327952400                       # number of ReadExReq miss cycles
system.l2cache.ReadSharedReq_miss_latency::cpu.inst     81812000                       # number of ReadSharedReq miss cycles
system.l2cache.ReadSharedReq_miss_latency::cpu.data    136621200                       # number of ReadSharedReq miss cycles
system.l2cache.ReadSharedReq_miss_latency::total    218433200                       # number of ReadSharedReq miss cycles
system.l2cache.demand_miss_latency::cpu.inst     81812000                       # number of demand (read+write) miss cycles
system.l2cache.demand_miss_latency::cpu.data   4464573600                       # number of demand (read+write) miss cycles
system.l2cache.demand_miss_latency::total   4546385600                       # number of demand (read+write) miss cycles
system.l2cache.overall_miss_latency::cpu.inst     81812000                       # number of overall miss cycles
system.l2cache.overall_miss_latency::cpu.data   4464573600                       # number of overall miss cycles
system.l2cache.overall_miss_latency::total   4546385600                       # number of overall miss cycles
system.l2cache.WritebackDirty_accesses::writebacks      1282893                       # number of WritebackDirty accesses(hits+misses)
system.l2cache.WritebackDirty_accesses::total      1282893                       # number of WritebackDirty accesses(hits+misses)
system.l2cache.ReadExReq_accesses::cpu.data      1216248                       # number of ReadExReq accesses(hits+misses)
system.l2cache.ReadExReq_accesses::total      1216248                       # number of ReadExReq accesses(hits+misses)
system.l2cache.ReadSharedReq_accesses::cpu.inst         1397                       # number of ReadSharedReq accesses(hits+misses)
system.l2cache.ReadSharedReq_accesses::cpu.data        72638                       # number of ReadSharedReq accesses(hits+misses)
system.l2cache.ReadSharedReq_accesses::total        74035                       # number of ReadSharedReq accesses(hits+misses)
system.l2cache.demand_accesses::cpu.inst         1397                       # number of demand (read+write) accesses
system.l2cache.demand_accesses::cpu.data      1288886                       # number of demand (read+write) accesses
system.l2cache.demand_accesses::total         1290283                       # number of demand (read+write) accesses
system.l2cache.overall_accesses::cpu.inst         1397                       # number of overall (read+write) accesses
system.l2cache.overall_accesses::cpu.data      1288886                       # number of overall (read+write) accesses
system.l2cache.overall_accesses::total        1290283                       # number of overall (read+write) accesses
system.l2cache.ReadExReq_miss_rate::cpu.data     0.051851                       # miss rate for ReadExReq accesses
system.l2cache.ReadExReq_miss_rate::total     0.051851                       # miss rate for ReadExReq accesses
system.l2cache.ReadSharedReq_miss_rate::cpu.inst     0.831782                       # miss rate for ReadSharedReq accesses
system.l2cache.ReadSharedReq_miss_rate::cpu.data     0.026611                       # miss rate for ReadSharedReq accesses
system.l2cache.ReadSharedReq_miss_rate::total     0.041805                       # miss rate for ReadSharedReq accesses
system.l2cache.demand_miss_rate::cpu.inst     0.831782                       # miss rate for demand accesses
system.l2cache.demand_miss_rate::cpu.data     0.050429                       # miss rate for demand accesses
system.l2cache.demand_miss_rate::total       0.051275                       # miss rate for demand accesses
system.l2cache.overall_miss_rate::cpu.inst     0.831782                       # miss rate for overall accesses
system.l2cache.overall_miss_rate::cpu.data     0.050429                       # miss rate for overall accesses
system.l2cache.overall_miss_rate::total      0.051275                       # miss rate for overall accesses
system.l2cache.ReadExReq_avg_miss_latency::cpu.data 68627.939871                       # average ReadExReq miss latency
system.l2cache.ReadExReq_avg_miss_latency::total 68627.939871                       # average ReadExReq miss latency
system.l2cache.ReadSharedReq_avg_miss_latency::cpu.inst 70406.196213                       # average ReadSharedReq miss latency
system.l2cache.ReadSharedReq_avg_miss_latency::cpu.data 70678.323849                       # average ReadSharedReq miss latency
system.l2cache.ReadSharedReq_avg_miss_latency::total 70576.155089                       # average ReadSharedReq miss latency
system.l2cache.demand_avg_miss_latency::cpu.inst 70406.196213                       # average overall miss latency
system.l2cache.demand_avg_miss_latency::cpu.data 68688.917950                       # average overall miss latency
system.l2cache.demand_avg_miss_latency::total 68719.079793                       # average overall miss latency
system.l2cache.overall_avg_miss_latency::cpu.inst 70406.196213                       # average overall miss latency
system.l2cache.overall_avg_miss_latency::cpu.data 68688.917950                       # average overall miss latency
system.l2cache.overall_avg_miss_latency::total 68719.079793                       # average overall miss latency
system.l2cache.blocked_cycles::no_mshrs             0                       # number of cycles access was blocked
system.l2cache.blocked_cycles::no_targets            0                       # number of cycles access was blocked
system.l2cache.blocked::no_mshrs                    0                       # number of cycles access was blocked
system.l2cache.blocked::no_targets                  0                       # number of cycles access was blocked
system.l2cache.avg_blocked_cycles::no_mshrs          nan                       # average number of cycles each access was blocked
system.l2cache.avg_blocked_cycles::no_targets          nan                       # average number of cycles each access was blocked
system.l2cache.writebacks::writebacks             556                       # number of writebacks
system.l2cache.writebacks::total                  556                       # number of writebacks
system.l2cache.CleanEvict_mshr_misses::writebacks           98                       # number of CleanEvict MSHR misses
system.l2cache.CleanEvict_mshr_misses::total           98                       # number of CleanEvict MSHR misses
system.l2cache.ReadExReq_mshr_misses::cpu.data        63064                       # number of ReadExReq MSHR misses
system.l2cache.ReadExReq_mshr_misses::total        63064                       # number of ReadExReq MSHR misses
system.l2cache.ReadSharedReq_mshr_misses::cpu.inst         1162                       # number of ReadSharedReq MSHR misses
system.l2cache.ReadSharedReq_mshr_misses::cpu.data         1933                       # number of ReadSharedReq MSHR misses
system.l2cache.ReadSharedReq_mshr_misses::total         3095                       # number of ReadSharedReq MSHR misses
system.l2cache.demand_mshr_misses::cpu.inst         1162                       # number of demand (read+write) MSHR misses
system.l2cache.demand_mshr_misses::cpu.data        64997                       # number of demand (read+write) MSHR misses
system.l2cache.demand_mshr_misses::total        66159                       # number of demand (read+write) MSHR misses
system.l2cache.overall_mshr_misses::cpu.inst         1162                       # number of overall MSHR misses
system.l2cache.overall_mshr_misses::cpu.data        64997                       # number of overall MSHR misses
system.l2cache.overall_mshr_misses::total        66159                       # number of overall MSHR misses
system.l2cache.ReadExReq_mshr_miss_latency::cpu.data   3823440400                       # number of ReadExReq MSHR miss cycles
system.l2cache.ReadExReq_mshr_miss_latency::total   3823440400                       # number of ReadExReq MSHR miss cycles
system.l2cache.ReadSharedReq_mshr_miss_latency::cpu.inst     72524000                       # number of ReadSharedReq MSHR miss cycles
system.l2cache.ReadSharedReq_mshr_miss_latency::cpu.data    121157200                       # number of ReadSharedReq MSHR miss cycles
system.l2cache.ReadSharedReq_mshr_miss_latency::total    193681200                       # number of ReadSharedReq MSHR miss cycles
system.l2cache.demand_mshr_miss_latency::cpu.inst     72524000                       # number of demand (read+write) MSHR miss cycles
system.l2cache.demand_mshr_miss_latency::cpu.data   3944597600                       # number of demand (read+write) MSHR miss cycles
system.l2cache.demand_mshr_miss_latency::total   4017121600                       # number of demand (read+write) MSHR miss cycles
system.l2cache.overall_mshr_miss_latency::cpu.inst     72524000                       # number of overall MSHR miss cycles
system.l2cache.overall_mshr_miss_latency::cpu.data   3944597600                       # number of overall MSHR miss cycles
system.l2cache.overall_mshr_miss_latency::total   4017121600                       # number of overall MSHR miss cycles
system.l2cache.CleanEvict_mshr_miss_rate::writebacks          inf                       # mshr miss rate for CleanEvict accesses
system.l2cache.CleanEvict_mshr_miss_rate::total          inf                       # mshr miss rate for CleanEvict accesses
system.l2cache.ReadExReq_mshr_miss_rate::cpu.data     0.051851                       # mshr miss rate for ReadExReq accesses
system.l2cache.ReadExReq_mshr_miss_rate::total     0.051851                       # mshr miss rate for ReadExReq accesses
system.l2cache.ReadSharedReq_mshr_miss_rate::cpu.inst     0.831782                       # mshr miss rate for ReadSharedReq accesses
system.l2cache.ReadSharedReq_mshr_miss_rate::cpu.data     0.026611                       # mshr miss rate for ReadSharedReq accesses
system.l2cache.ReadSharedReq_mshr_miss_rate::total     0.041805                       # mshr miss rate for ReadSharedReq accesses
system.l2cache.demand_mshr_miss_rate::cpu.inst     0.831782                       # mshr miss rate for demand accesses
system.l2cache.demand_mshr_miss_rate::cpu.data     0.050429                       # mshr miss rate for demand accesses
system.l2cache.demand_mshr_miss_rate::total     0.051275                       # mshr miss rate for demand accesses
system.l2cache.overall_mshr_miss_rate::cpu.inst     0.831782                       # mshr miss rate for overall accesses
system.l2cache.overall_mshr_miss_rate::cpu.data     0.050429                       # mshr miss rate for overall accesses
system.l2cache.overall_mshr_miss_rate::total     0.051275                       # mshr miss rate for overall accesses
system.l2cache.ReadExReq_avg_mshr_miss_latency::cpu.data 60627.939871                       # average ReadExReq mshr miss latency
system.l2cache.ReadExReq_avg_mshr_miss_latency::total 60627.939871                       # average ReadExReq mshr miss latency
system.l2cache.ReadSharedReq_avg_mshr_miss_latency::cpu.inst 62413.080895                       # average ReadSharedReq mshr miss latency
system.l2cache.ReadSharedReq_avg_mshr_miss_latency::cpu.data 62678.323849                       # average ReadSharedReq mshr miss latency
system.l2cache.ReadSharedReq_avg_mshr_miss_latency::total 62578.739903                       # average ReadSharedReq mshr miss latency
system.l2cache.demand_avg_mshr_miss_latency::cpu.inst 62413.080895                       # average overall mshr miss latency
system.l2cache.demand_avg_mshr_miss_latency::cpu.data 60688.917950                       # average overall mshr miss latency
system.l2cache.demand_avg_mshr_miss_latency::total 60719.200713                       # average overall mshr miss latency
system.l2cache.overall_avg_mshr_miss_latency::cpu.inst 62413.080895                       # average overall mshr miss latency
system.l2cache.overall_avg_mshr_miss_latency::cpu.data 60688.917950                       # average overall mshr miss latency
system.l2cache.overall_avg_mshr_miss_latency::total 60719.200713                       # average overall mshr miss latency
system.membus.snoop_filter.tot_requests         68711                       # Total number of requests made to the snoop filter.
system.membus.snoop_filter.hit_single_requests         2553                       # Number of requests hitting in the snoop filter with a single holder of the requested data.
system.membus.snoop_filter.hit_multi_requests            0                       # Number of requests hitting in the snoop filter with multiple (>1) holders of the requested data.
system.membus.snoop_filter.tot_snoops               0                       # Total number of snoops made to the snoop filter.
system.membus.snoop_filter.hit_single_snoops            0                       # Number of snoops hitting in the snoop filter with a single holder of the requested data.
system.membus.snoop_filter.hit_multi_snoops            0                       # Number of snoops hitting in the snoop filter with multiple (>1) holders of the requested data.
system.membus.pwrStateResidencyTicks::UNDEFINED  55022273200                       # Cumulative time (in ticks) in various power states
system.membus.trans_dist::ReadResp               3094                       # Transaction distribution
system.membus.trans_dist::WritebackDirty          556                       # Transaction distribution
system.membus.trans_dist::CleanEvict             1997                       # Transaction distribution
system.membus.trans_dist::ReadExReq             63064                       # Transaction distribution
system.membus.trans_dist::ReadExResp            63064                       # Transaction distribution
system.membus.trans_dist::ReadSharedReq          3094                       # Transaction distribution
system.membus.pkt_count_system.l2cache.mem_side::system.mem_ctrl.port       134869                       # Packet count per connected master and slave (bytes)
system.membus.pkt_count_system.l2cache.mem_side::total       134869                       # Packet count per connected master and slave (bytes)
system.membus.pkt_count::total                 134869                       # Packet count per connected master and slave (bytes)
system.membus.pkt_size_system.l2cache.mem_side::system.mem_ctrl.port      4269696                       # Cumulative packet size per connected master and slave (bytes)
system.membus.pkt_size_system.l2cache.mem_side::total      4269696                       # Cumulative packet size per connected master and slave (bytes)
system.membus.pkt_size::total                 4269696                       # Cumulative packet size per connected master and slave (bytes)
system.membus.snoops                                0                       # Total snoops (count)
system.membus.snoopTraffic                          0                       # Total snoop traffic (bytes)
system.membus.snoop_fanout::samples             66158                       # Request fanout histogram
system.membus.snoop_fanout::mean                    0                       # Request fanout histogram
system.membus.snoop_fanout::stdev                   0                       # Request fanout histogram
system.membus.snoop_fanout::underflows              0      0.00%      0.00% # Request fanout histogram
system.membus.snoop_fanout::0                   66158    100.00%    100.00% # Request fanout histogram
system.membus.snoop_fanout::1                       0      0.00%    100.00% # Request fanout histogram
system.membus.snoop_fanout::overflows               0      0.00%    100.00% # Request fanout histogram
system.membus.snoop_fanout::min_value               0                       # Request fanout histogram
system.membus.snoop_fanout::max_value               0                       # Request fanout histogram
system.membus.snoop_fanout::total               66158                       # Request fanout histogram
system.membus.reqLayer2.occupancy            28374000                       # Layer occupancy (ticks)
system.membus.reqLayer2.utilization               0.1                       # Layer utilization (%)
system.membus.respLayer0.occupancy          154437158                       # Layer occupancy (ticks)
system.membus.respLayer0.utilization              0.3                       # Layer utilization (%)

---------- End Simulation Statistics   ----------
