
---------- Begin Simulation Statistics ----------
sim_seconds                                  0.134214                       # Number of seconds simulated
sim_ticks                                134214234000                       # Number of ticks simulated
final_tick                               134214234000                       # Number of ticks from beginning of simulation (restored from checkpoints and never reset)
sim_freq                                 1000000000000                       # Frequency of simulated ticks
host_inst_rate                                 245996                       # Simulator instruction rate (inst/s)
host_op_rate                                   423125                       # Simulator op (including micro ops) rate (op/s)
host_tick_rate                              692159054                       # Simulator tick rate (ticks/s)
host_mem_usage                                 685836                       # Number of bytes of host memory used
host_seconds                                   193.91                       # Real time elapsed on the host
sim_insts                                    47700244                       # Number of instructions simulated
sim_ops                                      82046706                       # Number of ops (including micro ops) simulated
system.clk_domain.voltage_domain.voltage            1                       # Voltage in Volts
system.clk_domain.clock                          1000                       # Clock period in ticks
system.mem_ctrl.pwrStateResidencyTicks::UNDEFINED 134214234000                       # Cumulative time (in ticks) in various power states
system.mem_ctrl.bytes_read::cpu.inst            74368                       # Number of bytes read from this memory
system.mem_ctrl.bytes_read::cpu.data          4159808                       # Number of bytes read from this memory
system.mem_ctrl.bytes_read::total             4234176                       # Number of bytes read from this memory
system.mem_ctrl.bytes_inst_read::cpu.inst        74368                       # Number of instructions bytes read from this memory
system.mem_ctrl.bytes_inst_read::total          74368                       # Number of instructions bytes read from this memory
system.mem_ctrl.bytes_written::writebacks        35648                       # Number of bytes written to this memory
system.mem_ctrl.bytes_written::total            35648                       # Number of bytes written to this memory
system.mem_ctrl.num_reads::cpu.inst              1162                       # Number of read requests responded to by this memory
system.mem_ctrl.num_reads::cpu.data             64997                       # Number of read requests responded to by this memory
system.mem_ctrl.num_reads::total                66159                       # Number of read requests responded to by this memory
system.mem_ctrl.num_writes::writebacks            557                       # Number of write requests responded to by this memory
system.mem_ctrl.num_writes::total                 557                       # Number of write requests responded to by this memory
system.mem_ctrl.bw_read::cpu.inst              554099                       # Total read bandwidth from this memory (bytes/s)
system.mem_ctrl.bw_read::cpu.data            30993792                       # Total read bandwidth from this memory (bytes/s)
system.mem_ctrl.bw_read::total               31547891                       # Total read bandwidth from this memory (bytes/s)
system.mem_ctrl.bw_inst_read::cpu.inst         554099                       # Instruction read bandwidth from this memory (bytes/s)
system.mem_ctrl.bw_inst_read::total            554099                       # Instruction read bandwidth from this memory (bytes/s)
system.mem_ctrl.bw_write::writebacks           265605                       # Write bandwidth from this memory (bytes/s)
system.mem_ctrl.bw_write::total                265605                       # Write bandwidth from this memory (bytes/s)
system.mem_ctrl.bw_total::writebacks           265605                       # Total bandwidth to/from this memory (bytes/s)
system.mem_ctrl.bw_total::cpu.inst             554099                       # Total bandwidth to/from this memory (bytes/s)
system.mem_ctrl.bw_total::cpu.data           30993792                       # Total bandwidth to/from this memory (bytes/s)
system.mem_ctrl.bw_total::total              31813496                       # Total bandwidth to/from this memory (bytes/s)
system.mem_ctrl.readReqs                        66159                       # Number of read requests accepted
system.mem_ctrl.writeReqs                         557                       # Number of write requests accepted
system.mem_ctrl.readBursts                      66159                       # Number of DRAM read bursts, including those serviced by the write queue
system.mem_ctrl.writeBursts                       557                       # Number of DRAM write bursts, including those merged in the write queue
system.mem_ctrl.bytesReadDRAM                 4230144                       # Total number of bytes read from DRAM
system.mem_ctrl.bytesReadWrQ                     4032                       # Total number of bytes read from write queue
system.mem_ctrl.bytesWritten                    30336                       # Total number of bytes written to DRAM
system.mem_ctrl.bytesReadSys                  4234176                       # Total read bytes from the system interface side
system.mem_ctrl.bytesWrittenSys                 35648                       # Total written bytes from the system interface side
system.mem_ctrl.servicedByWrQ                      63                       # Number of DRAM read bursts serviced by the write queue
system.mem_ctrl.mergedWrBursts                     55                       # Number of DRAM write bursts merged with an existing one
system.mem_ctrl.neitherReadNorWriteReqs             0                       # Number of requests that are neither read nor write
system.mem_ctrl.perBankRdBursts::0               4216                       # Per bank write bursts
system.mem_ctrl.perBankRdBursts::1               4207                       # Per bank write bursts
system.mem_ctrl.perBankRdBursts::2               4178                       # Per bank write bursts
system.mem_ctrl.perBankRdBursts::3               4125                       # Per bank write bursts
system.mem_ctrl.perBankRdBursts::4               4260                       # Per bank write bursts
system.mem_ctrl.perBankRdBursts::5               4266                       # Per bank write bursts
system.mem_ctrl.perBankRdBursts::6               4264                       # Per bank write bursts
system.mem_ctrl.perBankRdBursts::7               4134                       # Per bank write bursts
system.mem_ctrl.perBankRdBursts::8               4062                       # Per bank write bursts
system.mem_ctrl.perBankRdBursts::9               4143                       # Per bank write bursts
system.mem_ctrl.perBankRdBursts::10              4208                       # Per bank write bursts
system.mem_ctrl.perBankRdBursts::11              4095                       # Per bank write bursts
system.mem_ctrl.perBankRdBursts::12              3879                       # Per bank write bursts
system.mem_ctrl.perBankRdBursts::13              3916                       # Per bank write bursts
system.mem_ctrl.perBankRdBursts::14              3979                       # Per bank write bursts
system.mem_ctrl.perBankRdBursts::15              4164                       # Per bank write bursts
system.mem_ctrl.perBankWrBursts::0                 26                       # Per bank write bursts
system.mem_ctrl.perBankWrBursts::1                 25                       # Per bank write bursts
system.mem_ctrl.perBankWrBursts::2                  0                       # Per bank write bursts
system.mem_ctrl.perBankWrBursts::3                  3                       # Per bank write bursts
system.mem_ctrl.perBankWrBursts::4                 49                       # Per bank write bursts
system.mem_ctrl.perBankWrBursts::5                 84                       # Per bank write bursts
system.mem_ctrl.perBankWrBursts::6                 83                       # Per bank write bursts
system.mem_ctrl.perBankWrBursts::7                 55                       # Per bank write bursts
system.mem_ctrl.perBankWrBursts::8                  1                       # Per bank write bursts
system.mem_ctrl.perBankWrBursts::9                 38                       # Per bank write bursts
system.mem_ctrl.perBankWrBursts::10                64                       # Per bank write bursts
system.mem_ctrl.perBankWrBursts::11                11                       # Per bank write bursts
system.mem_ctrl.perBankWrBursts::12                 2                       # Per bank write bursts
system.mem_ctrl.perBankWrBursts::13                 0                       # Per bank write bursts
system.mem_ctrl.perBankWrBursts::14                21                       # Per bank write bursts
system.mem_ctrl.perBankWrBursts::15                12                       # Per bank write bursts
system.mem_ctrl.numRdRetry                          0                       # Number of times read queue was full causing retry
system.mem_ctrl.numWrRetry                          0                       # Number of times write queue was full causing retry
system.mem_ctrl.totGap                   134214122000                       # Total gap between requests
system.mem_ctrl.readPktSize::0                      0                       # Read request sizes (log2)
system.mem_ctrl.readPktSize::1                      0                       # Read request sizes (log2)
system.mem_ctrl.readPktSize::2                      0                       # Read request sizes (log2)
system.mem_ctrl.readPktSize::3                      0                       # Read request sizes (log2)
system.mem_ctrl.readPktSize::4                      0                       # Read request sizes (log2)
system.mem_ctrl.readPktSize::5                      0                       # Read request sizes (log2)
system.mem_ctrl.readPktSize::6                  66159                       # Read request sizes (log2)
system.mem_ctrl.writePktSize::0                     0                       # Write request sizes (log2)
system.mem_ctrl.writePktSize::1                     0                       # Write request sizes (log2)
system.mem_ctrl.writePktSize::2                     0                       # Write request sizes (log2)
system.mem_ctrl.writePktSize::3                     0                       # Write request sizes (log2)
system.mem_ctrl.writePktSize::4                     0                       # Write request sizes (log2)
system.mem_ctrl.writePktSize::5                     0                       # Write request sizes (log2)
system.mem_ctrl.writePktSize::6                   557                       # Write request sizes (log2)
system.mem_ctrl.rdQLenPdf::0                    65854                       # What read queue length does an incoming req see
system.mem_ctrl.rdQLenPdf::1                      231                       # What read queue length does an incoming req see
system.mem_ctrl.rdQLenPdf::2                       11                       # What read queue length does an incoming req see
system.mem_ctrl.rdQLenPdf::3                        0                       # What read queue length does an incoming req see
system.mem_ctrl.rdQLenPdf::4                        0                       # What read queue length does an incoming req see
system.mem_ctrl.rdQLenPdf::5                        0                       # What read queue length does an incoming req see
system.mem_ctrl.rdQLenPdf::6                        0                       # What read queue length does an incoming req see
system.mem_ctrl.rdQLenPdf::7                        0                       # What read queue length does an incoming req see
system.mem_ctrl.rdQLenPdf::8                        0                       # What read queue length does an incoming req see
system.mem_ctrl.rdQLenPdf::9                        0                       # What read queue length does an incoming req see
system.mem_ctrl.rdQLenPdf::10                       0                       # What read queue length does an incoming req see
system.mem_ctrl.rdQLenPdf::11                       0                       # What read queue length does an incoming req see
system.mem_ctrl.rdQLenPdf::12                       0                       # What read queue length does an incoming req see
system.mem_ctrl.rdQLenPdf::13                       0                       # What read queue length does an incoming req see
system.mem_ctrl.rdQLenPdf::14                       0                       # What read queue length does an incoming req see
system.mem_ctrl.rdQLenPdf::15                       0                       # What read queue length does an incoming req see
system.mem_ctrl.rdQLenPdf::16                       0                       # What read queue length does an incoming req see
system.mem_ctrl.rdQLenPdf::17                       0                       # What read queue length does an incoming req see
system.mem_ctrl.rdQLenPdf::18                       0                       # What read queue length does an incoming req see
system.mem_ctrl.rdQLenPdf::19                       0                       # What read queue length does an incoming req see
system.mem_ctrl.rdQLenPdf::20                       0                       # What read queue length does an incoming req see
system.mem_ctrl.rdQLenPdf::21                       0                       # What read queue length does an incoming req see
system.mem_ctrl.rdQLenPdf::22                       0                       # What read queue length does an incoming req see
system.mem_ctrl.rdQLenPdf::23                       0                       # What read queue length does an incoming req see
system.mem_ctrl.rdQLenPdf::24                       0                       # What read queue length does an incoming req see
system.mem_ctrl.rdQLenPdf::25                       0                       # What read queue length does an incoming req see
system.mem_ctrl.rdQLenPdf::26                       0                       # What read queue length does an incoming req see
system.mem_ctrl.rdQLenPdf::27                       0                       # What read queue length does an incoming req see
system.mem_ctrl.rdQLenPdf::28                       0                       # What read queue length does an incoming req see
system.mem_ctrl.rdQLenPdf::29                       0                       # What read queue length does an incoming req see
system.mem_ctrl.rdQLenPdf::30                       0                       # What read queue length does an incoming req see
system.mem_ctrl.rdQLenPdf::31                       0                       # What read queue length does an incoming req see
system.mem_ctrl.wrQLenPdf::0                        1                       # What write queue length does an incoming req see
system.mem_ctrl.wrQLenPdf::1                        1                       # What write queue length does an incoming req see
system.mem_ctrl.wrQLenPdf::2                        1                       # What write queue length does an incoming req see
system.mem_ctrl.wrQLenPdf::3                        1                       # What write queue length does an incoming req see
system.mem_ctrl.wrQLenPdf::4                        1                       # What write queue length does an incoming req see
system.mem_ctrl.wrQLenPdf::5                        1                       # What write queue length does an incoming req see
system.mem_ctrl.wrQLenPdf::6                        1                       # What write queue length does an incoming req see
system.mem_ctrl.wrQLenPdf::7                        1                       # What write queue length does an incoming req see
system.mem_ctrl.wrQLenPdf::8                        1                       # What write queue length does an incoming req see
system.mem_ctrl.wrQLenPdf::9                        1                       # What write queue length does an incoming req see
system.mem_ctrl.wrQLenPdf::10                       1                       # What write queue length does an incoming req see
system.mem_ctrl.wrQLenPdf::11                       1                       # What write queue length does an incoming req see
system.mem_ctrl.wrQLenPdf::12                       1                       # What write queue length does an incoming req see
system.mem_ctrl.wrQLenPdf::13                       1                       # What write queue length does an incoming req see
system.mem_ctrl.wrQLenPdf::14                       1                       # What write queue length does an incoming req see
system.mem_ctrl.wrQLenPdf::15                      14                       # What write queue length does an incoming req see
system.mem_ctrl.wrQLenPdf::16                      14                       # What write queue length does an incoming req see
system.mem_ctrl.wrQLenPdf::17                      27                       # What write queue length does an incoming req see
system.mem_ctrl.wrQLenPdf::18                      29                       # What write queue length does an incoming req see
system.mem_ctrl.wrQLenPdf::19                      29                       # What write queue length does an incoming req see
system.mem_ctrl.wrQLenPdf::20                      29                       # What write queue length does an incoming req see
system.mem_ctrl.wrQLenPdf::21                      29                       # What write queue length does an incoming req see
system.mem_ctrl.wrQLenPdf::22                      29                       # What write queue length does an incoming req see
system.mem_ctrl.wrQLenPdf::23                      29                       # What write queue length does an incoming req see
system.mem_ctrl.wrQLenPdf::24                      29                       # What write queue length does an incoming req see
system.mem_ctrl.wrQLenPdf::25                      29                       # What write queue length does an incoming req see
system.mem_ctrl.wrQLenPdf::26                      29                       # What write queue length does an incoming req see
system.mem_ctrl.wrQLenPdf::27                      29                       # What write queue length does an incoming req see
system.mem_ctrl.wrQLenPdf::28                      28                       # What write queue length does an incoming req see
system.mem_ctrl.wrQLenPdf::29                      30                       # What write queue length does an incoming req see
system.mem_ctrl.wrQLenPdf::30                      28                       # What write queue length does an incoming req see
system.mem_ctrl.wrQLenPdf::31                      28                       # What write queue length does an incoming req see
system.mem_ctrl.wrQLenPdf::32                      28                       # What write queue length does an incoming req see
system.mem_ctrl.wrQLenPdf::33                       0                       # What write queue length does an incoming req see
system.mem_ctrl.wrQLenPdf::34                       0                       # What write queue length does an incoming req see
system.mem_ctrl.wrQLenPdf::35                       0                       # What write queue length does an incoming req see
system.mem_ctrl.wrQLenPdf::36                       0                       # What write queue length does an incoming req see
system.mem_ctrl.wrQLenPdf::37                       0                       # What write queue length does an incoming req see
system.mem_ctrl.wrQLenPdf::38                       0                       # What write queue length does an incoming req see
system.mem_ctrl.wrQLenPdf::39                       0                       # What write queue length does an incoming req see
system.mem_ctrl.wrQLenPdf::40                       0                       # What write queue length does an incoming req see
system.mem_ctrl.wrQLenPdf::41                       0                       # What write queue length does an incoming req see
system.mem_ctrl.wrQLenPdf::42                       0                       # What write queue length does an incoming req see
system.mem_ctrl.wrQLenPdf::43                       0                       # What write queue length does an incoming req see
system.mem_ctrl.wrQLenPdf::44                       0                       # What write queue length does an incoming req see
system.mem_ctrl.wrQLenPdf::45                       0                       # What write queue length does an incoming req see
system.mem_ctrl.wrQLenPdf::46                       0                       # What write queue length does an incoming req see
system.mem_ctrl.wrQLenPdf::47                       0                       # What write queue length does an incoming req see
system.mem_ctrl.wrQLenPdf::48                       0                       # What write queue length does an incoming req see
system.mem_ctrl.wrQLenPdf::49                       0                       # What write queue length does an incoming req see
system.mem_ctrl.wrQLenPdf::50                       0                       # What write queue length does an incoming req see
system.mem_ctrl.wrQLenPdf::51                       0                       # What write queue length does an incoming req see
system.mem_ctrl.wrQLenPdf::52                       0                       # What write queue length does an incoming req see
system.mem_ctrl.wrQLenPdf::53                       0                       # What write queue length does an incoming req see
system.mem_ctrl.wrQLenPdf::54                       0                       # What write queue length does an incoming req see
system.mem_ctrl.wrQLenPdf::55                       0                       # What write queue length does an incoming req see
system.mem_ctrl.wrQLenPdf::56                       0                       # What write queue length does an incoming req see
system.mem_ctrl.wrQLenPdf::57                       0                       # What write queue length does an incoming req see
system.mem_ctrl.wrQLenPdf::58                       0                       # What write queue length does an incoming req see
system.mem_ctrl.wrQLenPdf::59                       0                       # What write queue length does an incoming req see
system.mem_ctrl.wrQLenPdf::60                       0                       # What write queue length does an incoming req see
system.mem_ctrl.wrQLenPdf::61                       0                       # What write queue length does an incoming req see
system.mem_ctrl.wrQLenPdf::62                       0                       # What write queue length does an incoming req see
system.mem_ctrl.wrQLenPdf::63                       0                       # What write queue length does an incoming req see
system.mem_ctrl.bytesPerActivate::samples         5123                       # Bytes accessed per row activation
system.mem_ctrl.bytesPerActivate::mean     831.262932                       # Bytes accessed per row activation
system.mem_ctrl.bytesPerActivate::gmean    685.814602                       # Bytes accessed per row activation
system.mem_ctrl.bytesPerActivate::stdev    327.846108                       # Bytes accessed per row activation
system.mem_ctrl.bytesPerActivate::0-127           301      5.88%      5.88% # Bytes accessed per row activation
system.mem_ctrl.bytesPerActivate::128-255          324      6.32%     12.20% # Bytes accessed per row activation
system.mem_ctrl.bytesPerActivate::256-383          213      4.16%     16.36% # Bytes accessed per row activation
system.mem_ctrl.bytesPerActivate::384-511          111      2.17%     18.52% # Bytes accessed per row activation
system.mem_ctrl.bytesPerActivate::512-639          182      3.55%     22.08% # Bytes accessed per row activation
system.mem_ctrl.bytesPerActivate::640-767           88      1.72%     23.79% # Bytes accessed per row activation
system.mem_ctrl.bytesPerActivate::768-895          141      2.75%     26.55% # Bytes accessed per row activation
system.mem_ctrl.bytesPerActivate::896-1023          631     12.32%     38.86% # Bytes accessed per row activation
system.mem_ctrl.bytesPerActivate::1024-1151         3132     61.14%    100.00% # Bytes accessed per row activation
system.mem_ctrl.bytesPerActivate::total          5123                       # Bytes accessed per row activation
system.mem_ctrl.rdPerTurnAround::samples           28                       # Reads before turning the bus around for writes
system.mem_ctrl.rdPerTurnAround::mean     2360.035714                       # Reads before turning the bus around for writes
system.mem_ctrl.rdPerTurnAround::gmean      39.207455                       # Reads before turning the bus around for writes
system.mem_ctrl.rdPerTurnAround::stdev   11423.646141                       # Reads before turning the bus around for writes
system.mem_ctrl.rdPerTurnAround::0-2047            26     92.86%     92.86% # Reads before turning the bus around for writes
system.mem_ctrl.rdPerTurnAround::2048-4095            1      3.57%     96.43% # Reads before turning the bus around for writes
system.mem_ctrl.rdPerTurnAround::59392-61439            1      3.57%    100.00% # Reads before turning the bus around for writes
system.mem_ctrl.rdPerTurnAround::total             28                       # Reads before turning the bus around for writes
system.mem_ctrl.wrPerTurnAround::samples           28                       # Writes before turning the bus around for reads
system.mem_ctrl.wrPerTurnAround::mean       16.928571                       # Writes before turning the bus around for reads
system.mem_ctrl.wrPerTurnAround::gmean      16.899325                       # Writes before turning the bus around for reads
system.mem_ctrl.wrPerTurnAround::stdev       1.015749                       # Writes before turning the bus around for reads
system.mem_ctrl.wrPerTurnAround::16                15     53.57%     53.57% # Writes before turning the bus around for reads
system.mem_ctrl.wrPerTurnAround::18                13     46.43%    100.00% # Writes before turning the bus around for reads
system.mem_ctrl.wrPerTurnAround::total             28                       # Writes before turning the bus around for reads
system.mem_ctrl.totQLat                    2180292790                       # Total ticks spent queuing
system.mem_ctrl.totMemAccLat               3293481622                       # Total ticks spent from burst creation until serviced by the DRAM
system.mem_ctrl.totBusLat                   247992192                       # Total ticks spent in databus transfers
system.mem_ctrl.avgQLat                      32986.76                       # Average queueing delay per DRAM burst
system.mem_ctrl.avgBusLat                     3752.00                       # Average bus latency per DRAM burst
system.mem_ctrl.avgMemAccLat                 49828.76                       # Average memory access latency per DRAM burst
system.mem_ctrl.avgRdBW                         31.52                       # Average DRAM read bandwidth in MiByte/s
system.mem_ctrl.avgWrBW                          0.23                       # Average achieved write bandwidth in MiByte/s
system.mem_ctrl.avgRdBWSys                      31.55                       # Average system read bandwidth in MiByte/s
system.mem_ctrl.avgWrBWSys                       0.27                       # Average system write bandwidth in MiByte/s
system.mem_ctrl.peakBW                       17057.00                       # Theoretical peak bandwidth in MiByte/s
system.mem_ctrl.busUtil                          0.19                       # Data bus utilization in percentage
system.mem_ctrl.busUtilRead                      0.18                       # Data bus utilization in percentage for reads
system.mem_ctrl.busUtilWrite                     0.00                       # Data bus utilization in percentage for writes
system.mem_ctrl.avgRdQLen                        1.00                       # Average read queue length when enqueuing
system.mem_ctrl.avgWrQLen                       21.14                       # Average write queue length when enqueuing
system.mem_ctrl.readRowHits                     61052                       # Number of row buffer hits during reads
system.mem_ctrl.writeRowHits                      386                       # Number of row buffer hits during writes
system.mem_ctrl.readRowHitRate                  92.37                       # Row buffer hit rate for reads
system.mem_ctrl.writeRowHitRate                 76.89                       # Row buffer hit rate for writes
system.mem_ctrl.avgGap                     2011723.15                       # Average gap between requests
system.mem_ctrl.pageHitRate                     92.25                       # Row buffer hit rate, read and write combined
system.mem_ctrl_0.actEnergy              28130094.720000                       # Energy for activate commands per rank (pJ)
system.mem_ctrl_0.preEnergy              13858724.880000                       # Energy for precharge commands per rank (pJ)
system.mem_ctrl_0.readEnergy             222713467.200000                       # Energy for read commands per rank (pJ)
system.mem_ctrl_0.writeEnergy            1653506.400000                       # Energy for write commands per rank (pJ)
system.mem_ctrl_0.refreshEnergy          2386985675.424000                       # Energy for refresh commands per rank (pJ)
system.mem_ctrl_0.actBackEnergy          903357078.624000                       # Energy for active background per rank (pJ)
system.mem_ctrl_0.preBackEnergy          155920453.248000                       # Energy for precharge background per rank (pJ)
system.mem_ctrl_0.actPowerDownEnergy     7838632970.784000                       # Energy for active power-down per rank (pJ)
system.mem_ctrl_0.prePowerDownEnergy     201182765.280000                       # Energy for precharge power-down per rank (pJ)
system.mem_ctrl_0.selfRefreshEnergy      29018730526.463997                       # Energy for self refresh per rank (pJ)
system.mem_ctrl_0.totalEnergy            40853503848.527992                       # Total energy per rank (pJ)
system.mem_ctrl_0.averagePower             304.390246                       # Core power per rank (mW)
system.mem_ctrl_0.totalIdleTime          131992608840                       # Total Idle time Per DRAM Rank
system.mem_ctrl_0.memoryStateTime::IDLE     427140000                       # Time in different power states
system.mem_ctrl_0.memoryStateTime::REF      972200000                       # Time in different power states
system.mem_ctrl_0.memoryStateTime::SREF  116757220520                       # Time in different power states
system.mem_ctrl_0.memoryStateTime::PRE_PDN    389888000                       # Time in different power states
system.mem_ctrl_0.memoryStateTime::ACT      821887002                       # Time in different power states
system.mem_ctrl_0.memoryStateTime::ACT_PDN  14845898478                       # Time in different power states
system.mem_ctrl_1.actEnergy              25938686.592000                       # Energy for activate commands per rank (pJ)
system.mem_ctrl_1.preEnergy              12782268.576000                       # Energy for precharge commands per rank (pJ)
system.mem_ctrl_1.readEnergy             214744759.488000                       # Energy for read commands per rank (pJ)
system.mem_ctrl_1.writeEnergy            758069.088000                       # Energy for write commands per rank (pJ)
system.mem_ctrl_1.refreshEnergy          2332838552.352000                       # Energy for refresh commands per rank (pJ)
system.mem_ctrl_1.actBackEnergy          873246513.216000                       # Energy for active background per rank (pJ)
system.mem_ctrl_1.preBackEnergy          155692226.592000                       # Energy for precharge background per rank (pJ)
system.mem_ctrl_1.actPowerDownEnergy     7605621659.328000                       # Energy for active power-down per rank (pJ)
system.mem_ctrl_1.prePowerDownEnergy     223279182.504000                       # Energy for precharge power-down per rank (pJ)
system.mem_ctrl_1.selfRefreshEnergy      29111524720.320000                       # Energy for self refresh per rank (pJ)
system.mem_ctrl_1.totalEnergy            40637033915.688004                       # Total energy per rank (pJ)
system.mem_ctrl_1.averagePower             302.777377                       # Core power per rank (mW)
system.mem_ctrl_1.totalIdleTime          132053811426                       # Total Idle time Per DRAM Rank
system.mem_ctrl_1.memoryStateTime::IDLE     425372000                       # Time in different power states
system.mem_ctrl_1.memoryStateTime::REF      950198000                       # Time in different power states
system.mem_ctrl_1.memoryStateTime::SREF  117216593390                       # Time in different power states
system.mem_ctrl_1.memoryStateTime::PRE_PDN    432716316                       # Time in different power states
system.mem_ctrl_1.memoryStateTime::ACT      784787416                       # Time in different power states
system.mem_ctrl_1.memoryStateTime::ACT_PDN  14404566878                       # Time in different power states
system.pwrStateResidencyTicks::UNDEFINED 134214234000                       # Cumulative time (in ticks) in various power states
system.cpu.branchPred.lookups                      82                       # Number of BP lookups
system.cpu.branchPred.condPredicted                82                       # Number of conditional branches predicted
system.cpu.branchPred.condIncorrect                32                       # Number of conditional branches incorrect
system.cpu.branchPred.BTBLookups                   37                       # Number of BTB lookups
system.cpu.branchPred.BTBHits                       0                       # Number of BTB hits
system.cpu.branchPred.BTBCorrect                    0                       # Number of correct BTB predictions (this stat may not work properly.
system.cpu.branchPred.BTBHitPct              0.000000                       # BTB Hit Percentage
system.cpu.branchPred.usedRAS                       0                       # Number of times the RAS was used to get a target.
system.cpu.branchPred.RASInCorrect                  0                       # Number of incorrect RAS predictions.
system.cpu.branchPred.indirectLookups              37                       # Number of indirect predictor lookups.
system.cpu.branchPred.indirectHits                  0                       # Number of indirect target hits.
system.cpu.branchPred.indirectMisses               37                       # Number of indirect misses.
system.cpu.branchPredindirectMispredicted           12                       # Number of mispredicted indirect branches.
system.cpu.dtb.walker.pwrStateResidencyTicks::UNDEFINED 134214234000                       # Cumulative time (in ticks) in various power states
system.cpu.dtb.rdAccesses                    26909321                       # TLB accesses on read requests
system.cpu.dtb.wrAccesses                     7334873                       # TLB accesses on write requests
system.cpu.dtb.rdMisses                          2851                       # TLB misses on read requests
system.cpu.dtb.wrMisses                        116849                       # TLB misses on write requests
system.cpu.apic_clk_domain.clock                16000                       # Clock period in ticks
system.cpu.interrupts.pwrStateResidencyTicks::UNDEFINED 134214234000                       # Cumulative time (in ticks) in various power states
system.cpu.itb.walker.pwrStateResidencyTicks::UNDEFINED 134214234000                       # Cumulative time (in ticks) in various power states
system.cpu.itb.rdAccesses                           0                       # TLB accesses on read requests
system.cpu.itb.wrAccesses                    18313197                       # TLB accesses on write requests
system.cpu.itb.rdMisses                             0                       # TLB misses on read requests
system.cpu.itb.wrMisses                            90                       # TLB misses on write requests
system.cpu.workload.numSyscalls                    33                       # Number of system calls
system.cpu.pwrStateResidencyTicks::ON    134214234000                       # Cumulative time (in ticks) in various power states
system.cpu.numCycles                        134214234                       # number of cpu cycles simulated
system.cpu.numWorkItemsStarted                      0                       # number of work items this cpu started
system.cpu.numWorkItemsCompleted                    0                       # number of work items this cpu completed
system.cpu.committedInsts                    47700244                       # Number of instructions committed
system.cpu.committedOps                      82046706                       # Number of ops (including micro ops) committed
system.cpu.discardedOps                      13326318                       # Number of ops (including micro ops) which were discarded before commit
system.cpu.numFetchSuspends                         0                       # Number of times Execute suspended instruction fetching
system.cpu.cpi                               2.813701                       # CPI: cycles per instruction
system.cpu.ipc                               0.355404                       # IPC: instructions per cycle
system.cpu.op_class_0::No_OpClass                1287      0.00%      0.00% # Class of committed instruction
system.cpu.op_class_0::IntAlu                50852257     61.98%     61.98% # Class of committed instruction
system.cpu.op_class_0::IntMult                   1192      0.00%     61.98% # Class of committed instruction
system.cpu.op_class_0::IntDiv                    1131      0.00%     61.98% # Class of committed instruction
system.cpu.op_class_0::FloatAdd                  2227      0.00%     61.99% # Class of committed instruction
system.cpu.op_class_0::FloatCmp                     0      0.00%     61.99% # Class of committed instruction
system.cpu.op_class_0::FloatCvt                     0      0.00%     61.99% # Class of committed instruction
system.cpu.op_class_0::FloatMult                    0      0.00%     61.99% # Class of committed instruction
system.cpu.op_class_0::FloatMultAcc                 0      0.00%     61.99% # Class of committed instruction
system.cpu.op_class_0::FloatDiv                     0      0.00%     61.99% # Class of committed instruction
system.cpu.op_class_0::FloatMisc                    0      0.00%     61.99% # Class of committed instruction
system.cpu.op_class_0::FloatSqrt                    0      0.00%     61.99% # Class of committed instruction
system.cpu.op_class_0::SimdAdd                      0      0.00%     61.99% # Class of committed instruction
system.cpu.op_class_0::SimdAddAcc                   0      0.00%     61.99% # Class of committed instruction
system.cpu.op_class_0::SimdAlu                      0      0.00%     61.99% # Class of committed instruction
system.cpu.op_class_0::SimdCmp                      0      0.00%     61.99% # Class of committed instruction
system.cpu.op_class_0::SimdCvt                      0      0.00%     61.99% # Class of committed instruction
system.cpu.op_class_0::SimdMisc                     0      0.00%     61.99% # Class of committed instruction
system.cpu.op_class_0::SimdMult                     0      0.00%     61.99% # Class of committed instruction
system.cpu.op_class_0::SimdMultAcc                  0      0.00%     61.99% # Class of committed instruction
system.cpu.op_class_0::SimdShift                    0      0.00%     61.99% # Class of committed instruction
system.cpu.op_class_0::SimdShiftAcc                 0      0.00%     61.99% # Class of committed instruction
system.cpu.op_class_0::SimdSqrt                     0      0.00%     61.99% # Class of committed instruction
system.cpu.op_class_0::SimdFloatAdd                 0      0.00%     61.99% # Class of committed instruction
system.cpu.op_class_0::SimdFloatAlu                 0      0.00%     61.99% # Class of committed instruction
system.cpu.op_class_0::SimdFloatCmp                 0      0.00%     61.99% # Class of committed instruction
system.cpu.op_class_0::SimdFloatCvt                 0      0.00%     61.99% # Class of committed instruction
system.cpu.op_class_0::SimdFloatDiv                 0      0.00%     61.99% # Class of committed instruction
system.cpu.op_class_0::SimdFloatMisc                0      0.00%     61.99% # Class of committed instruction
system.cpu.op_class_0::SimdFloatMult                0      0.00%     61.99% # Class of committed instruction
system.cpu.op_class_0::SimdFloatMultAcc             0      0.00%     61.99% # Class of committed instruction
system.cpu.op_class_0::SimdFloatSqrt                0      0.00%     61.99% # Class of committed instruction
system.cpu.op_class_0::MemRead               23853209     29.07%     91.06% # Class of committed instruction
system.cpu.op_class_0::MemWrite               7334237      8.94%    100.00% # Class of committed instruction
system.cpu.op_class_0::FloatMemRead               782      0.00%    100.00% # Class of committed instruction
system.cpu.op_class_0::FloatMemWrite              384      0.00%    100.00% # Class of committed instruction
system.cpu.op_class_0::IprAccess                    0      0.00%    100.00% # Class of committed instruction
system.cpu.op_class_0::InstPrefetch                 0      0.00%    100.00% # Class of committed instruction
system.cpu.op_class_0::total                 82046706                       # Class of committed instruction
system.cpu.tickCycles                       126542343                       # Number of cycles that the object actually ticked
system.cpu.idleCycles                         7671891                       # Total number of cycles that the object has spent stopped
system.cpu.dcache.tags.pwrStateResidencyTicks::UNDEFINED 134214234000                       # Cumulative time (in ticks) in various power states
system.cpu.dcache.tags.replacements           1287862                       # number of replacements
system.cpu.dcache.tags.tagsinuse          1022.510048                       # Cycle average of tags in use
system.cpu.dcache.tags.total_refs            32888184                       # Total number of references to valid blocks.
system.cpu.dcache.tags.sampled_refs           1288886                       # Sample count of references to valid blocks.
system.cpu.dcache.tags.avg_refs             25.516752                       # Average number of references to valid blocks.
system.cpu.dcache.tags.warmup_cycle         639323000                       # Cycle when the warmup percentage was hit.
system.cpu.dcache.tags.occ_blocks::cpu.data  1022.510048                       # Average occupied blocks per requestor
system.cpu.dcache.tags.occ_percent::cpu.data     0.998545                       # Average percentage of cache occupancy
system.cpu.dcache.tags.occ_percent::total     0.998545                       # Average percentage of cache occupancy
system.cpu.dcache.tags.occ_task_id_blocks::1024         1024                       # Occupied blocks per task id
system.cpu.dcache.tags.age_task_id_blocks_1024::0           27                       # Occupied blocks per task id
system.cpu.dcache.tags.age_task_id_blocks_1024::1          196                       # Occupied blocks per task id
system.cpu.dcache.tags.age_task_id_blocks_1024::2          801                       # Occupied blocks per task id
system.cpu.dcache.tags.occ_task_id_percent::1024            1                       # Percentage of cache occupancy per task id
system.cpu.dcache.tags.tag_accesses          35528869                       # Number of tag accesses
system.cpu.dcache.tags.data_accesses         35528869                       # Number of data accesses
system.cpu.dcache.pwrStateResidencyTicks::UNDEFINED 134214234000                       # Cumulative time (in ticks) in various power states
system.cpu.dcache.ReadReq_hits::cpu.data     26832679                       # number of ReadReq hits
system.cpu.dcache.ReadReq_hits::total        26832679                       # number of ReadReq hits
system.cpu.dcache.WriteReq_hits::cpu.data      6055505                       # number of WriteReq hits
system.cpu.dcache.WriteReq_hits::total        6055505                       # number of WriteReq hits
system.cpu.dcache.demand_hits::cpu.data      32888184                       # number of demand (read+write) hits
system.cpu.dcache.demand_hits::total         32888184                       # number of demand (read+write) hits
system.cpu.dcache.overall_hits::cpu.data     32888184                       # number of overall hits
system.cpu.dcache.overall_hits::total        32888184                       # number of overall hits
system.cpu.dcache.ReadReq_misses::cpu.data        72683                       # number of ReadReq misses
system.cpu.dcache.ReadReq_misses::total         72683                       # number of ReadReq misses
system.cpu.dcache.WriteReq_misses::cpu.data      1279116                       # number of WriteReq misses
system.cpu.dcache.WriteReq_misses::total      1279116                       # number of WriteReq misses
system.cpu.dcache.demand_misses::cpu.data      1351799                       # number of demand (read+write) misses
system.cpu.dcache.demand_misses::total        1351799                       # number of demand (read+write) misses
system.cpu.dcache.overall_misses::cpu.data      1351799                       # number of overall misses
system.cpu.dcache.overall_misses::total       1351799                       # number of overall misses
system.cpu.dcache.ReadReq_miss_latency::cpu.data   2051084000                       # number of ReadReq miss cycles
system.cpu.dcache.ReadReq_miss_latency::total   2051084000                       # number of ReadReq miss cycles
system.cpu.dcache.WriteReq_miss_latency::cpu.data  44458321000                       # number of WriteReq miss cycles
system.cpu.dcache.WriteReq_miss_latency::total  44458321000                       # number of WriteReq miss cycles
system.cpu.dcache.demand_miss_latency::cpu.data  46509405000                       # number of demand (read+write) miss cycles
system.cpu.dcache.demand_miss_latency::total  46509405000                       # number of demand (read+write) miss cycles
system.cpu.dcache.overall_miss_latency::cpu.data  46509405000                       # number of overall miss cycles
system.cpu.dcache.overall_miss_latency::total  46509405000                       # number of overall miss cycles
system.cpu.dcache.ReadReq_accesses::cpu.data     26905362                       # number of ReadReq accesses(hits+misses)
system.cpu.dcache.ReadReq_accesses::total     26905362                       # number of ReadReq accesses(hits+misses)
system.cpu.dcache.WriteReq_accesses::cpu.data      7334621                       # number of WriteReq accesses(hits+misses)
system.cpu.dcache.WriteReq_accesses::total      7334621                       # number of WriteReq accesses(hits+misses)
system.cpu.dcache.demand_accesses::cpu.data     34239983                       # number of demand (read+write) accesses
system.cpu.dcache.demand_accesses::total     34239983                       # number of demand (read+write) accesses
system.cpu.dcache.overall_accesses::cpu.data     34239983                       # number of overall (read+write) accesses
system.cpu.dcache.overall_accesses::total     34239983                       # number of overall (read+write) accesses
system.cpu.dcache.ReadReq_miss_rate::cpu.data     0.002701                       # miss rate for ReadReq accesses
system.cpu.dcache.ReadReq_miss_rate::total     0.002701                       # miss rate for ReadReq accesses
system.cpu.dcache.WriteReq_miss_rate::cpu.data     0.174394                       # miss rate for WriteReq accesses
system.cpu.dcache.WriteReq_miss_rate::total     0.174394                       # miss rate for WriteReq accesses
system.cpu.dcache.demand_miss_rate::cpu.data     0.039480                       # miss rate for demand accesses
system.cpu.dcache.demand_miss_rate::total     0.039480                       # miss rate for demand accesses
system.cpu.dcache.overall_miss_rate::cpu.data     0.039480                       # miss rate for overall accesses
system.cpu.dcache.overall_miss_rate::total     0.039480                       # miss rate for overall accesses
system.cpu.dcache.ReadReq_avg_miss_latency::cpu.data 28219.583672                       # average ReadReq miss latency
system.cpu.dcache.ReadReq_avg_miss_latency::total 28219.583672                       # average ReadReq miss latency
system.cpu.dcache.WriteReq_avg_miss_latency::cpu.data 34757.067381                       # average WriteReq miss latency
system.cpu.dcache.WriteReq_avg_miss_latency::total 34757.067381                       # average WriteReq miss latency
system.cpu.dcache.demand_avg_miss_latency::cpu.data 34405.562513                       # average overall miss latency
system.cpu.dcache.demand_avg_miss_latency::total 34405.562513                       # average overall miss latency
system.cpu.dcache.overall_avg_miss_latency::cpu.data 34405.562513                       # average overall miss latency
system.cpu.dcache.overall_avg_miss_latency::total 34405.562513                       # average overall miss latency
system.cpu.dcache.blocked_cycles::no_mshrs            0                       # number of cycles access was blocked
system.cpu.dcache.blocked_cycles::no_targets            0                       # number of cycles access was blocked
system.cpu.dcache.blocked::no_mshrs                 0                       # number of cycles access was blocked
system.cpu.dcache.blocked::no_targets               0                       # number of cycles access was blocked
system.cpu.dcache.avg_blocked_cycles::no_mshrs          nan                       # average number of cycles each access was blocked
system.cpu.dcache.avg_blocked_cycles::no_targets          nan                       # average number of cycles each access was blocked
system.cpu.dcache.writebacks::writebacks      1282893                       # number of writebacks
system.cpu.dcache.writebacks::total           1282893                       # number of writebacks
system.cpu.dcache.ReadReq_mshr_hits::cpu.data           45                       # number of ReadReq MSHR hits
system.cpu.dcache.ReadReq_mshr_hits::total           45                       # number of ReadReq MSHR hits
system.cpu.dcache.WriteReq_mshr_hits::cpu.data        62868                       # number of WriteReq MSHR hits
system.cpu.dcache.WriteReq_mshr_hits::total        62868                       # number of WriteReq MSHR hits
system.cpu.dcache.demand_mshr_hits::cpu.data        62913                       # number of demand (read+write) MSHR hits
system.cpu.dcache.demand_mshr_hits::total        62913                       # number of demand (read+write) MSHR hits
system.cpu.dcache.overall_mshr_hits::cpu.data        62913                       # number of overall MSHR hits
system.cpu.dcache.overall_mshr_hits::total        62913                       # number of overall MSHR hits
system.cpu.dcache.ReadReq_mshr_misses::cpu.data        72638                       # number of ReadReq MSHR misses
system.cpu.dcache.ReadReq_mshr_misses::total        72638                       # number of ReadReq MSHR misses
system.cpu.dcache.WriteReq_mshr_misses::cpu.data      1216248                       # number of WriteReq MSHR misses
system.cpu.dcache.WriteReq_mshr_misses::total      1216248                       # number of WriteReq MSHR misses
system.cpu.dcache.demand_mshr_misses::cpu.data      1288886                       # number of demand (read+write) MSHR misses
system.cpu.dcache.demand_mshr_misses::total      1288886                       # number of demand (read+write) MSHR misses
system.cpu.dcache.overall_mshr_misses::cpu.data      1288886                       # number of overall MSHR misses
system.cpu.dcache.overall_mshr_misses::total      1288886                       # number of overall MSHR misses
system.cpu.dcache.ReadReq_mshr_miss_latency::cpu.data   1903247000                       # number of ReadReq MSHR miss cycles
system.cpu.dcache.ReadReq_mshr_miss_latency::total   1903247000                       # number of ReadReq MSHR miss cycles
system.cpu.dcache.WriteReq_mshr_miss_latency::cpu.data  35551902000                       # number of WriteReq MSHR miss cycles
system.cpu.dcache.WriteReq_mshr_miss_latency::total  35551902000                       # number of WriteReq MSHR miss cycles
system.cpu.dcache.demand_mshr_miss_latency::cpu.data  37455149000                       # number of demand (read+write) MSHR miss cycles
system.cpu.dcache.demand_mshr_miss_latency::total  37455149000                       # number of demand (read+write) MSHR miss cycles
system.cpu.dcache.overall_mshr_miss_latency::cpu.data  37455149000                       # number of overall MSHR miss cycles
system.cpu.dcache.overall_mshr_miss_latency::total  37455149000                       # number of overall MSHR miss cycles
system.cpu.dcache.ReadReq_mshr_miss_rate::cpu.data     0.002700                       # mshr miss rate for ReadReq accesses
system.cpu.dcache.ReadReq_mshr_miss_rate::total     0.002700                       # mshr miss rate for ReadReq accesses
system.cpu.dcache.WriteReq_mshr_miss_rate::cpu.data     0.165823                       # mshr miss rate for WriteReq accesses
system.cpu.dcache.WriteReq_mshr_miss_rate::total     0.165823                       # mshr miss rate for WriteReq accesses
system.cpu.dcache.demand_mshr_miss_rate::cpu.data     0.037643                       # mshr miss rate for demand accesses
system.cpu.dcache.demand_mshr_miss_rate::total     0.037643                       # mshr miss rate for demand accesses
system.cpu.dcache.overall_mshr_miss_rate::cpu.data     0.037643                       # mshr miss rate for overall accesses
system.cpu.dcache.overall_mshr_miss_rate::total     0.037643                       # mshr miss rate for overall accesses
system.cpu.dcache.ReadReq_avg_mshr_miss_latency::cpu.data 26201.808971                       # average ReadReq mshr miss latency
system.cpu.dcache.ReadReq_avg_mshr_miss_latency::total 26201.808971                       # average ReadReq mshr miss latency
system.cpu.dcache.WriteReq_avg_mshr_miss_latency::cpu.data 29230.799968                       # average WriteReq mshr miss latency
system.cpu.dcache.WriteReq_avg_mshr_miss_latency::total 29230.799968                       # average WriteReq mshr miss latency
system.cpu.dcache.demand_avg_mshr_miss_latency::cpu.data 29060.094531                       # average overall mshr miss latency
system.cpu.dcache.demand_avg_mshr_miss_latency::total 29060.094531                       # average overall mshr miss latency
system.cpu.dcache.overall_avg_mshr_miss_latency::cpu.data 29060.094531                       # average overall mshr miss latency
system.cpu.dcache.overall_avg_mshr_miss_latency::total 29060.094531                       # average overall mshr miss latency
system.cpu.icache.tags.pwrStateResidencyTicks::UNDEFINED 134214234000                       # Cumulative time (in ticks) in various power states
system.cpu.icache.tags.replacements               912                       # number of replacements
system.cpu.icache.tags.tagsinuse           464.687552                       # Cycle average of tags in use
system.cpu.icache.tags.total_refs            18311799                       # Total number of references to valid blocks.
system.cpu.icache.tags.sampled_refs              1397                       # Sample count of references to valid blocks.
system.cpu.icache.tags.avg_refs          13107.944882                       # Average number of references to valid blocks.
system.cpu.icache.tags.warmup_cycle                 0                       # Cycle when the warmup percentage was hit.
system.cpu.icache.tags.occ_blocks::cpu.inst   464.687552                       # Average occupied blocks per requestor
system.cpu.icache.tags.occ_percent::cpu.inst     0.907593                       # Average percentage of cache occupancy
system.cpu.icache.tags.occ_percent::total     0.907593                       # Average percentage of cache occupancy
system.cpu.icache.tags.occ_task_id_blocks::1024          485                       # Occupied blocks per task id
system.cpu.icache.tags.age_task_id_blocks_1024::0           69                       # Occupied blocks per task id
system.cpu.icache.tags.age_task_id_blocks_1024::1          156                       # Occupied blocks per task id
system.cpu.icache.tags.age_task_id_blocks_1024::4          260                       # Occupied blocks per task id
system.cpu.icache.tags.occ_task_id_percent::1024     0.947266                       # Percentage of cache occupancy per task id
system.cpu.icache.tags.tag_accesses          18314594                       # Number of tag accesses
system.cpu.icache.tags.data_accesses         18314594                       # Number of data accesses
system.cpu.icache.pwrStateResidencyTicks::UNDEFINED 134214234000                       # Cumulative time (in ticks) in various power states
system.cpu.icache.ReadReq_hits::cpu.inst     18311799                       # number of ReadReq hits
system.cpu.icache.ReadReq_hits::total        18311799                       # number of ReadReq hits
system.cpu.icache.demand_hits::cpu.inst      18311799                       # number of demand (read+write) hits
system.cpu.icache.demand_hits::total         18311799                       # number of demand (read+write) hits
system.cpu.icache.overall_hits::cpu.inst     18311799                       # number of overall hits
system.cpu.icache.overall_hits::total        18311799                       # number of overall hits
system.cpu.icache.ReadReq_misses::cpu.inst         1398                       # number of ReadReq misses
system.cpu.icache.ReadReq_misses::total          1398                       # number of ReadReq misses
system.cpu.icache.demand_misses::cpu.inst         1398                       # number of demand (read+write) misses
system.cpu.icache.demand_misses::total           1398                       # number of demand (read+write) misses
system.cpu.icache.overall_misses::cpu.inst         1398                       # number of overall misses
system.cpu.icache.overall_misses::total          1398                       # number of overall misses
system.cpu.icache.ReadReq_miss_latency::cpu.inst    128774000                       # number of ReadReq miss cycles
system.cpu.icache.ReadReq_miss_latency::total    128774000                       # number of ReadReq miss cycles
system.cpu.icache.demand_miss_latency::cpu.inst    128774000                       # number of demand (read+write) miss cycles
system.cpu.icache.demand_miss_latency::total    128774000                       # number of demand (read+write) miss cycles
system.cpu.icache.overall_miss_latency::cpu.inst    128774000                       # number of overall miss cycles
system.cpu.icache.overall_miss_latency::total    128774000                       # number of overall miss cycles
system.cpu.icache.ReadReq_accesses::cpu.inst     18313197                       # number of ReadReq accesses(hits+misses)
system.cpu.icache.ReadReq_accesses::total     18313197                       # number of ReadReq accesses(hits+misses)
system.cpu.icache.demand_accesses::cpu.inst     18313197                       # number of demand (read+write) accesses
system.cpu.icache.demand_accesses::total     18313197                       # number of demand (read+write) accesses
system.cpu.icache.overall_accesses::cpu.inst     18313197                       # number of overall (read+write) accesses
system.cpu.icache.overall_accesses::total     18313197                       # number of overall (read+write) accesses
system.cpu.icache.ReadReq_miss_rate::cpu.inst     0.000076                       # miss rate for ReadReq accesses
system.cpu.icache.ReadReq_miss_rate::total     0.000076                       # miss rate for ReadReq accesses
system.cpu.icache.demand_miss_rate::cpu.inst     0.000076                       # miss rate for demand accesses
system.cpu.icache.demand_miss_rate::total     0.000076                       # miss rate for demand accesses
system.cpu.icache.overall_miss_rate::cpu.inst     0.000076                       # miss rate for overall accesses
system.cpu.icache.overall_miss_rate::total     0.000076                       # miss rate for overall accesses
system.cpu.icache.ReadReq_avg_miss_latency::cpu.inst 92113.018598                       # average ReadReq miss latency
system.cpu.icache.ReadReq_avg_miss_latency::total 92113.018598                       # average ReadReq miss latency
system.cpu.icache.demand_avg_miss_latency::cpu.inst 92113.018598                       # average overall miss latency
system.cpu.icache.demand_avg_miss_latency::total 92113.018598                       # average overall miss latency
system.cpu.icache.overall_avg_miss_latency::cpu.inst 92113.018598                       # average overall miss latency
system.cpu.icache.overall_avg_miss_latency::total 92113.018598                       # average overall miss latency
system.cpu.icache.blocked_cycles::no_mshrs            0                       # number of cycles access was blocked
system.cpu.icache.blocked_cycles::no_targets            0                       # number of cycles access was blocked
system.cpu.icache.blocked::no_mshrs                 0                       # number of cycles access was blocked
system.cpu.icache.blocked::no_targets               0                       # number of cycles access was blocked
system.cpu.icache.avg_blocked_cycles::no_mshrs          nan                       # average number of cycles each access was blocked
system.cpu.icache.avg_blocked_cycles::no_targets          nan                       # average number of cycles each access was blocked
system.cpu.icache.ReadReq_mshr_misses::cpu.inst         1398                       # number of ReadReq MSHR misses
system.cpu.icache.ReadReq_mshr_misses::total         1398                       # number of ReadReq MSHR misses
system.cpu.icache.demand_mshr_misses::cpu.inst         1398                       # number of demand (read+write) MSHR misses
system.cpu.icache.demand_mshr_misses::total         1398                       # number of demand (read+write) MSHR misses
system.cpu.icache.overall_mshr_misses::cpu.inst         1398                       # number of overall MSHR misses
system.cpu.icache.overall_mshr_misses::total         1398                       # number of overall MSHR misses
system.cpu.icache.ReadReq_mshr_miss_latency::cpu.inst    125980000                       # number of ReadReq MSHR miss cycles
system.cpu.icache.ReadReq_mshr_miss_latency::total    125980000                       # number of ReadReq MSHR miss cycles
system.cpu.icache.demand_mshr_miss_latency::cpu.inst    125980000                       # number of demand (read+write) MSHR miss cycles
system.cpu.icache.demand_mshr_miss_latency::total    125980000                       # number of demand (read+write) MSHR miss cycles
system.cpu.icache.overall_mshr_miss_latency::cpu.inst    125980000                       # number of overall MSHR miss cycles
system.cpu.icache.overall_mshr_miss_latency::total    125980000                       # number of overall MSHR miss cycles
system.cpu.icache.ReadReq_mshr_miss_rate::cpu.inst     0.000076                       # mshr miss rate for ReadReq accesses
system.cpu.icache.ReadReq_mshr_miss_rate::total     0.000076                       # mshr miss rate for ReadReq accesses
system.cpu.icache.demand_mshr_miss_rate::cpu.inst     0.000076                       # mshr miss rate for demand accesses
system.cpu.icache.demand_mshr_miss_rate::total     0.000076                       # mshr miss rate for demand accesses
system.cpu.icache.overall_mshr_miss_rate::cpu.inst     0.000076                       # mshr miss rate for overall accesses
system.cpu.icache.overall_mshr_miss_rate::total     0.000076                       # mshr miss rate for overall accesses
system.cpu.icache.ReadReq_avg_mshr_miss_latency::cpu.inst 90114.449213                       # average ReadReq mshr miss latency
system.cpu.icache.ReadReq_avg_mshr_miss_latency::total 90114.449213                       # average ReadReq mshr miss latency
system.cpu.icache.demand_avg_mshr_miss_latency::cpu.inst 90114.449213                       # average overall mshr miss latency
system.cpu.icache.demand_avg_mshr_miss_latency::total 90114.449213                       # average overall mshr miss latency
system.cpu.icache.overall_avg_mshr_miss_latency::cpu.inst 90114.449213                       # average overall mshr miss latency
system.cpu.icache.overall_avg_mshr_miss_latency::total 90114.449213                       # average overall mshr miss latency
system.l2bus.snoop_filter.tot_requests        2579058                       # Total number of requests made to the snoop filter.
system.l2bus.snoop_filter.hit_single_requests      1288776                       # Number of requests hitting in the snoop filter with a single holder of the requested data.
system.l2bus.snoop_filter.hit_multi_requests            5                       # Number of requests hitting in the snoop filter with multiple (>1) holders of the requested data.
system.l2bus.snoop_filter.tot_snoops              234                       # Total number of snoops made to the snoop filter.
system.l2bus.snoop_filter.hit_single_snoops          234                       # Number of snoops hitting in the snoop filter with a single holder of the requested data.
system.l2bus.snoop_filter.hit_multi_snoops            0                       # Number of snoops hitting in the snoop filter with multiple (>1) holders of the requested data.
system.l2bus.pwrStateResidencyTicks::UNDEFINED 134214234000                       # Cumulative time (in ticks) in various power states
system.l2bus.trans_dist::ReadResp               74035                       # Transaction distribution
system.l2bus.trans_dist::WritebackDirty       1283450                       # Transaction distribution
system.l2bus.trans_dist::CleanEvict              8015                       # Transaction distribution
system.l2bus.trans_dist::ReadExReq            1216248                       # Transaction distribution
system.l2bus.trans_dist::ReadExResp           1216248                       # Transaction distribution
system.l2bus.trans_dist::ReadSharedReq          74036                       # Transaction distribution
system.l2bus.pkt_count_system.cpu.icache.mem_side::system.l2cache.cpu_side         3707                       # Packet count per connected master and slave (bytes)
system.l2bus.pkt_count_system.cpu.dcache.mem_side::system.l2cache.cpu_side      3865634                       # Packet count per connected master and slave (bytes)
system.l2bus.pkt_count::total                 3869341                       # Packet count per connected master and slave (bytes)
system.l2bus.pkt_size_system.cpu.icache.mem_side::system.l2cache.cpu_side        89408                       # Cumulative packet size per connected master and slave (bytes)
system.l2bus.pkt_size_system.cpu.dcache.mem_side::system.l2cache.cpu_side    164593856                       # Cumulative packet size per connected master and slave (bytes)
system.l2bus.pkt_size::total                164683264                       # Cumulative packet size per connected master and slave (bytes)
system.l2bus.snoops                              2691                       # Total snoops (count)
system.l2bus.snoopTraffic                       35648                       # Total snoop traffic (bytes)
system.l2bus.snoop_fanout::samples            1292975                       # Request fanout histogram
system.l2bus.snoop_fanout::mean              0.000186                       # Request fanout histogram
system.l2bus.snoop_fanout::stdev             0.013651                       # Request fanout histogram
system.l2bus.snoop_fanout::underflows               0      0.00%      0.00% # Request fanout histogram
system.l2bus.snoop_fanout::0                  1292734     99.98%     99.98% # Request fanout histogram
system.l2bus.snoop_fanout::1                      241      0.02%    100.00% # Request fanout histogram
system.l2bus.snoop_fanout::2                        0      0.00%    100.00% # Request fanout histogram
system.l2bus.snoop_fanout::overflows                0      0.00%    100.00% # Request fanout histogram
system.l2bus.snoop_fanout::min_value                0                       # Request fanout histogram
system.l2bus.snoop_fanout::max_value                1                       # Request fanout histogram
system.l2bus.snoop_fanout::total              1292975                       # Request fanout histogram
system.l2bus.reqLayer0.occupancy           5144844000                       # Layer occupancy (ticks)
system.l2bus.reqLayer0.utilization                3.8                       # Layer utilization (%)
system.l2bus.respLayer0.occupancy             4191000                       # Layer occupancy (ticks)
system.l2bus.respLayer0.utilization               0.0                       # Layer utilization (%)
system.l2bus.respLayer1.occupancy          3866658000                       # Layer occupancy (ticks)
system.l2bus.respLayer1.utilization               2.9                       # Layer utilization (%)
system.l2cache.tags.pwrStateResidencyTicks::UNDEFINED 134214234000                       # Cumulative time (in ticks) in various power states
system.l2cache.tags.replacements                 2691                       # number of replacements
system.l2cache.tags.tagsinuse            56031.202855                       # Cycle average of tags in use
system.l2cache.tags.total_refs                2512795                       # Total number of references to valid blocks.
system.l2cache.tags.sampled_refs                66159                       # Sample count of references to valid blocks.
system.l2cache.tags.avg_refs                37.981151                       # Average number of references to valid blocks.
system.l2cache.tags.warmup_cycle                    0                       # Cycle when the warmup percentage was hit.
system.l2cache.tags.occ_blocks::cpu.inst   632.945707                       # Average occupied blocks per requestor
system.l2cache.tags.occ_blocks::cpu.data 55398.257148                       # Average occupied blocks per requestor
system.l2cache.tags.occ_percent::cpu.inst     0.009658                       # Average percentage of cache occupancy
system.l2cache.tags.occ_percent::cpu.data     0.845310                       # Average percentage of cache occupancy
system.l2cache.tags.occ_percent::total       0.854968                       # Average percentage of cache occupancy
system.l2cache.tags.occ_task_id_blocks::1024        63468                       # Occupied blocks per task id
system.l2cache.tags.age_task_id_blocks_1024::0           80                       # Occupied blocks per task id
system.l2cache.tags.age_task_id_blocks_1024::1          274                       # Occupied blocks per task id
system.l2cache.tags.age_task_id_blocks_1024::3            2                       # Occupied blocks per task id
system.l2cache.tags.age_task_id_blocks_1024::4        63112                       # Occupied blocks per task id
system.l2cache.tags.occ_task_id_percent::1024     0.968445                       # Percentage of cache occupancy per task id
system.l2cache.tags.tag_accesses             20698583                       # Number of tag accesses
system.l2cache.tags.data_accesses            20698583                       # Number of data accesses
system.l2cache.pwrStateResidencyTicks::UNDEFINED 134214234000                       # Cumulative time (in ticks) in various power states
system.l2cache.WritebackDirty_hits::writebacks      1282893                       # number of WritebackDirty hits
system.l2cache.WritebackDirty_hits::total      1282893                       # number of WritebackDirty hits
system.l2cache.ReadExReq_hits::cpu.data       1153184                       # number of ReadExReq hits
system.l2cache.ReadExReq_hits::total          1153184                       # number of ReadExReq hits
system.l2cache.ReadSharedReq_hits::cpu.inst          235                       # number of ReadSharedReq hits
system.l2cache.ReadSharedReq_hits::cpu.data        70705                       # number of ReadSharedReq hits
system.l2cache.ReadSharedReq_hits::total        70940                       # number of ReadSharedReq hits
system.l2cache.demand_hits::cpu.inst              235                       # number of demand (read+write) hits
system.l2cache.demand_hits::cpu.data          1223889                       # number of demand (read+write) hits
system.l2cache.demand_hits::total             1224124                       # number of demand (read+write) hits
system.l2cache.overall_hits::cpu.inst             235                       # number of overall hits
system.l2cache.overall_hits::cpu.data         1223889                       # number of overall hits
system.l2cache.overall_hits::total            1224124                       # number of overall hits
system.l2cache.ReadExReq_misses::cpu.data        63064                       # number of ReadExReq misses
system.l2cache.ReadExReq_misses::total          63064                       # number of ReadExReq misses
system.l2cache.ReadSharedReq_misses::cpu.inst         1163                       # number of ReadSharedReq misses
system.l2cache.ReadSharedReq_misses::cpu.data         1933                       # number of ReadSharedReq misses
system.l2cache.ReadSharedReq_misses::total         3096                       # number of ReadSharedReq misses
system.l2cache.demand_misses::cpu.inst           1163                       # number of demand (read+write) misses
system.l2cache.demand_misses::cpu.data          64997                       # number of demand (read+write) misses
system.l2cache.demand_misses::total             66160                       # number of demand (read+write) misses
system.l2cache.overall_misses::cpu.inst          1163                       # number of overall misses
system.l2cache.overall_misses::cpu.data         64997                       # number of overall misses
system.l2cache.overall_misses::total            66160                       # number of overall misses
system.l2cache.ReadExReq_miss_latency::cpu.data   7686283000                       # number of ReadExReq miss cycles
system.l2cache.ReadExReq_miss_latency::total   7686283000                       # number of ReadExReq miss cycles
system.l2cache.ReadSharedReq_miss_latency::cpu.inst    116844000                       # number of ReadSharedReq miss cycles
system.l2cache.ReadSharedReq_miss_latency::cpu.data    197315000                       # number of ReadSharedReq miss cycles
system.l2cache.ReadSharedReq_miss_latency::total    314159000                       # number of ReadSharedReq miss cycles
system.l2cache.demand_miss_latency::cpu.inst    116844000                       # number of demand (read+write) miss cycles
system.l2cache.demand_miss_latency::cpu.data   7883598000                       # number of demand (read+write) miss cycles
system.l2cache.demand_miss_latency::total   8000442000                       # number of demand (read+write) miss cycles
system.l2cache.overall_miss_latency::cpu.inst    116844000                       # number of overall miss cycles
system.l2cache.overall_miss_latency::cpu.data   7883598000                       # number of overall miss cycles
system.l2cache.overall_miss_latency::total   8000442000                       # number of overall miss cycles
system.l2cache.WritebackDirty_accesses::writebacks      1282893                       # number of WritebackDirty accesses(hits+misses)
system.l2cache.WritebackDirty_accesses::total      1282893                       # number of WritebackDirty accesses(hits+misses)
system.l2cache.ReadExReq_accesses::cpu.data      1216248                       # number of ReadExReq accesses(hits+misses)
system.l2cache.ReadExReq_accesses::total      1216248                       # number of ReadExReq accesses(hits+misses)
system.l2cache.ReadSharedReq_accesses::cpu.inst         1398                       # number of ReadSharedReq accesses(hits+misses)
system.l2cache.ReadSharedReq_accesses::cpu.data        72638                       # number of ReadSharedReq accesses(hits+misses)
system.l2cache.ReadSharedReq_accesses::total        74036                       # number of ReadSharedReq accesses(hits+misses)
system.l2cache.demand_accesses::cpu.inst         1398                       # number of demand (read+write) accesses
system.l2cache.demand_accesses::cpu.data      1288886                       # number of demand (read+write) accesses
system.l2cache.demand_accesses::total         1290284                       # number of demand (read+write) accesses
system.l2cache.overall_accesses::cpu.inst         1398                       # number of overall (read+write) accesses
system.l2cache.overall_accesses::cpu.data      1288886                       # number of overall (read+write) accesses
system.l2cache.overall_accesses::total        1290284                       # number of overall (read+write) accesses
system.l2cache.ReadExReq_miss_rate::cpu.data     0.051851                       # miss rate for ReadExReq accesses
system.l2cache.ReadExReq_miss_rate::total     0.051851                       # miss rate for ReadExReq accesses
system.l2cache.ReadSharedReq_miss_rate::cpu.inst     0.831903                       # miss rate for ReadSharedReq accesses
system.l2cache.ReadSharedReq_miss_rate::cpu.data     0.026611                       # miss rate for ReadSharedReq accesses
system.l2cache.ReadSharedReq_miss_rate::total     0.041817                       # miss rate for ReadSharedReq accesses
system.l2cache.demand_miss_rate::cpu.inst     0.831903                       # miss rate for demand accesses
system.l2cache.demand_miss_rate::cpu.data     0.050429                       # miss rate for demand accesses
system.l2cache.demand_miss_rate::total       0.051276                       # miss rate for demand accesses
system.l2cache.overall_miss_rate::cpu.inst     0.831903                       # miss rate for overall accesses
system.l2cache.overall_miss_rate::cpu.data     0.050429                       # miss rate for overall accesses
system.l2cache.overall_miss_rate::total      0.051276                       # miss rate for overall accesses
system.l2cache.ReadExReq_avg_miss_latency::cpu.data 121880.676773                       # average ReadExReq miss latency
system.l2cache.ReadExReq_avg_miss_latency::total 121880.676773                       # average ReadExReq miss latency
system.l2cache.ReadSharedReq_avg_miss_latency::cpu.inst 100467.755804                       # average ReadSharedReq miss latency
system.l2cache.ReadSharedReq_avg_miss_latency::cpu.data 102077.082256                       # average ReadSharedReq miss latency
system.l2cache.ReadSharedReq_avg_miss_latency::total 101472.545220                       # average ReadSharedReq miss latency
system.l2cache.demand_avg_miss_latency::cpu.inst 100467.755804                       # average overall miss latency
system.l2cache.demand_avg_miss_latency::cpu.data 121291.721156                       # average overall miss latency
system.l2cache.demand_avg_miss_latency::total 120925.665054                       # average overall miss latency
system.l2cache.overall_avg_miss_latency::cpu.inst 100467.755804                       # average overall miss latency
system.l2cache.overall_avg_miss_latency::cpu.data 121291.721156                       # average overall miss latency
system.l2cache.overall_avg_miss_latency::total 120925.665054                       # average overall miss latency
system.l2cache.blocked_cycles::no_mshrs             0                       # number of cycles access was blocked
system.l2cache.blocked_cycles::no_targets            0                       # number of cycles access was blocked
system.l2cache.blocked::no_mshrs                    0                       # number of cycles access was blocked
system.l2cache.blocked::no_targets                  0                       # number of cycles access was blocked
system.l2cache.avg_blocked_cycles::no_mshrs          nan                       # average number of cycles each access was blocked
system.l2cache.avg_blocked_cycles::no_targets          nan                       # average number of cycles each access was blocked
system.l2cache.writebacks::writebacks             557                       # number of writebacks
system.l2cache.writebacks::total                  557                       # number of writebacks
system.l2cache.CleanEvict_mshr_misses::writebacks           98                       # number of CleanEvict MSHR misses
system.l2cache.CleanEvict_mshr_misses::total           98                       # number of CleanEvict MSHR misses
system.l2cache.ReadExReq_mshr_misses::cpu.data        63064                       # number of ReadExReq MSHR misses
system.l2cache.ReadExReq_mshr_misses::total        63064                       # number of ReadExReq MSHR misses
system.l2cache.ReadSharedReq_mshr_misses::cpu.inst         1163                       # number of ReadSharedReq MSHR misses
system.l2cache.ReadSharedReq_mshr_misses::cpu.data         1933                       # number of ReadSharedReq MSHR misses
system.l2cache.ReadSharedReq_mshr_misses::total         3096                       # number of ReadSharedReq MSHR misses
system.l2cache.demand_mshr_misses::cpu.inst         1163                       # number of demand (read+write) MSHR misses
system.l2cache.demand_mshr_misses::cpu.data        64997                       # number of demand (read+write) MSHR misses
system.l2cache.demand_mshr_misses::total        66160                       # number of demand (read+write) MSHR misses
system.l2cache.overall_mshr_misses::cpu.inst         1163                       # number of overall MSHR misses
system.l2cache.overall_mshr_misses::cpu.data        64997                       # number of overall MSHR misses
system.l2cache.overall_mshr_misses::total        66160                       # number of overall MSHR misses
system.l2cache.ReadExReq_mshr_miss_latency::cpu.data   6425003000                       # number of ReadExReq MSHR miss cycles
system.l2cache.ReadExReq_mshr_miss_latency::total   6425003000                       # number of ReadExReq MSHR miss cycles
system.l2cache.ReadSharedReq_mshr_miss_latency::cpu.inst     93604000                       # number of ReadSharedReq MSHR miss cycles
system.l2cache.ReadSharedReq_mshr_miss_latency::cpu.data    158655000                       # number of ReadSharedReq MSHR miss cycles
system.l2cache.ReadSharedReq_mshr_miss_latency::total    252259000                       # number of ReadSharedReq MSHR miss cycles
system.l2cache.demand_mshr_miss_latency::cpu.inst     93604000                       # number of demand (read+write) MSHR miss cycles
system.l2cache.demand_mshr_miss_latency::cpu.data   6583658000                       # number of demand (read+write) MSHR miss cycles
system.l2cache.demand_mshr_miss_latency::total   6677262000                       # number of demand (read+write) MSHR miss cycles
system.l2cache.overall_mshr_miss_latency::cpu.inst     93604000                       # number of overall MSHR miss cycles
system.l2cache.overall_mshr_miss_latency::cpu.data   6583658000                       # number of overall MSHR miss cycles
system.l2cache.overall_mshr_miss_latency::total   6677262000                       # number of overall MSHR miss cycles
system.l2cache.CleanEvict_mshr_miss_rate::writebacks          inf                       # mshr miss rate for CleanEvict accesses
system.l2cache.CleanEvict_mshr_miss_rate::total          inf                       # mshr miss rate for CleanEvict accesses
system.l2cache.ReadExReq_mshr_miss_rate::cpu.data     0.051851                       # mshr miss rate for ReadExReq accesses
system.l2cache.ReadExReq_mshr_miss_rate::total     0.051851                       # mshr miss rate for ReadExReq accesses
system.l2cache.ReadSharedReq_mshr_miss_rate::cpu.inst     0.831903                       # mshr miss rate for ReadSharedReq accesses
system.l2cache.ReadSharedReq_mshr_miss_rate::cpu.data     0.026611                       # mshr miss rate for ReadSharedReq accesses
system.l2cache.ReadSharedReq_mshr_miss_rate::total     0.041817                       # mshr miss rate for ReadSharedReq accesses
system.l2cache.demand_mshr_miss_rate::cpu.inst     0.831903                       # mshr miss rate for demand accesses
system.l2cache.demand_mshr_miss_rate::cpu.data     0.050429                       # mshr miss rate for demand accesses
system.l2cache.demand_mshr_miss_rate::total     0.051276                       # mshr miss rate for demand accesses
system.l2cache.overall_mshr_miss_rate::cpu.inst     0.831903                       # mshr miss rate for overall accesses
system.l2cache.overall_mshr_miss_rate::cpu.data     0.050429                       # mshr miss rate for overall accesses
system.l2cache.overall_mshr_miss_rate::total     0.051276                       # mshr miss rate for overall accesses
system.l2cache.ReadExReq_avg_mshr_miss_latency::cpu.data 101880.676773                       # average ReadExReq mshr miss latency
system.l2cache.ReadExReq_avg_mshr_miss_latency::total 101880.676773                       # average ReadExReq mshr miss latency
system.l2cache.ReadSharedReq_avg_mshr_miss_latency::cpu.inst 80484.952709                       # average ReadSharedReq mshr miss latency
system.l2cache.ReadSharedReq_avg_mshr_miss_latency::cpu.data 82077.082256                       # average ReadSharedReq mshr miss latency
system.l2cache.ReadSharedReq_avg_mshr_miss_latency::total 81479.005168                       # average ReadSharedReq mshr miss latency
system.l2cache.demand_avg_mshr_miss_latency::cpu.inst 80484.952709                       # average overall mshr miss latency
system.l2cache.demand_avg_mshr_miss_latency::cpu.data 101291.721156                       # average overall mshr miss latency
system.l2cache.demand_avg_mshr_miss_latency::total 100925.967352                       # average overall mshr miss latency
system.l2cache.overall_avg_mshr_miss_latency::cpu.inst 80484.952709                       # average overall mshr miss latency
system.l2cache.overall_avg_mshr_miss_latency::cpu.data 101291.721156                       # average overall mshr miss latency
system.l2cache.overall_avg_mshr_miss_latency::total 100925.967352                       # average overall mshr miss latency
system.membus.snoop_filter.tot_requests         68713                       # Total number of requests made to the snoop filter.
system.membus.snoop_filter.hit_single_requests         2554                       # Number of requests hitting in the snoop filter with a single holder of the requested data.
system.membus.snoop_filter.hit_multi_requests            0                       # Number of requests hitting in the snoop filter with multiple (>1) holders of the requested data.
system.membus.snoop_filter.tot_snoops               0                       # Total number of snoops made to the snoop filter.
system.membus.snoop_filter.hit_single_snoops            0                       # Number of snoops hitting in the snoop filter with a single holder of the requested data.
system.membus.snoop_filter.hit_multi_snoops            0                       # Number of snoops hitting in the snoop filter with multiple (>1) holders of the requested data.
system.membus.pwrStateResidencyTicks::UNDEFINED 134214234000                       # Cumulative time (in ticks) in various power states
system.membus.trans_dist::ReadResp               3095                       # Transaction distribution
system.membus.trans_dist::WritebackDirty          557                       # Transaction distribution
system.membus.trans_dist::CleanEvict             1997                       # Transaction distribution
system.membus.trans_dist::ReadExReq             63064                       # Transaction distribution
system.membus.trans_dist::ReadExResp            63064                       # Transaction distribution
system.membus.trans_dist::ReadSharedReq          3095                       # Transaction distribution
system.membus.pkt_count_system.l2cache.mem_side::system.mem_ctrl.port       134872                       # Packet count per connected master and slave (bytes)
system.membus.pkt_count_system.l2cache.mem_side::total       134872                       # Packet count per connected master and slave (bytes)
system.membus.pkt_count::total                 134872                       # Packet count per connected master and slave (bytes)
system.membus.pkt_size_system.l2cache.mem_side::system.mem_ctrl.port      4269824                       # Cumulative packet size per connected master and slave (bytes)
system.membus.pkt_size_system.l2cache.mem_side::total      4269824                       # Cumulative packet size per connected master and slave (bytes)
system.membus.pkt_size::total                 4269824                       # Cumulative packet size per connected master and slave (bytes)
system.membus.snoops                                0                       # Total snoops (count)
system.membus.snoopTraffic                          0                       # Total snoop traffic (bytes)
system.membus.snoop_fanout::samples             66159                       # Request fanout histogram
system.membus.snoop_fanout::mean                    0                       # Request fanout histogram
system.membus.snoop_fanout::stdev                   0                       # Request fanout histogram
system.membus.snoop_fanout::underflows              0      0.00%      0.00% # Request fanout histogram
system.membus.snoop_fanout::0                   66159    100.00%    100.00% # Request fanout histogram
system.membus.snoop_fanout::1                       0      0.00%    100.00% # Request fanout histogram
system.membus.snoop_fanout::overflows               0      0.00%    100.00% # Request fanout histogram
system.membus.snoop_fanout::min_value               0                       # Request fanout histogram
system.membus.snoop_fanout::max_value               0                       # Request fanout histogram
system.membus.snoop_fanout::total               66159                       # Request fanout histogram
system.membus.reqLayer2.occupancy            70941000                       # Layer occupancy (ticks)
system.membus.reqLayer2.utilization               0.1                       # Layer utilization (%)
system.membus.respLayer0.occupancy          340993952                       # Layer occupancy (ticks)
system.membus.respLayer0.utilization              0.3                       # Layer utilization (%)

---------- End Simulation Statistics   ----------
