
---------- Begin Simulation Statistics ----------
sim_seconds                                  0.054925                       # Number of seconds simulated
sim_ticks                                 54924928400                       # Number of ticks simulated
final_tick                                54924928400                       # Number of ticks from beginning of simulation (restored from checkpoints and never reset)
sim_freq                                 1000000000000                       # Frequency of simulated ticks
host_inst_rate                                 243653                       # Simulator instruction rate (inst/s)
host_op_rate                                   419094                       # Simulator op (including micro ops) rate (op/s)
host_tick_rate                              280556267                       # Simulator tick rate (ticks/s)
host_mem_usage                                 685836                       # Number of bytes of host memory used
host_seconds                                   195.77                       # Real time elapsed on the host
sim_insts                                    47700244                       # Number of instructions simulated
sim_ops                                      82046706                       # Number of ops (including micro ops) simulated
system.clk_domain.voltage_domain.voltage            1                       # Voltage in Volts
system.clk_domain.clock                           400                       # Clock period in ticks
system.mem_ctrl.pwrStateResidencyTicks::UNDEFINED  54924928400                       # Cumulative time (in ticks) in various power states
system.mem_ctrl.bytes_read::cpu.inst            73856                       # Number of bytes read from this memory
system.mem_ctrl.bytes_read::cpu.data          4155648                       # Number of bytes read from this memory
system.mem_ctrl.bytes_read::total             4229504                       # Number of bytes read from this memory
system.mem_ctrl.bytes_inst_read::cpu.inst        73856                       # Number of instructions bytes read from this memory
system.mem_ctrl.bytes_inst_read::total          73856                       # Number of instructions bytes read from this memory
system.mem_ctrl.bytes_written::writebacks        32192                       # Number of bytes written to this memory
system.mem_ctrl.bytes_written::total            32192                       # Number of bytes written to this memory
system.mem_ctrl.num_reads::cpu.inst              1154                       # Number of read requests responded to by this memory
system.mem_ctrl.num_reads::cpu.data             64932                       # Number of read requests responded to by this memory
system.mem_ctrl.num_reads::total                66086                       # Number of read requests responded to by this memory
system.mem_ctrl.num_writes::writebacks            503                       # Number of write requests responded to by this memory
system.mem_ctrl.num_writes::total                 503                       # Number of write requests responded to by this memory
system.mem_ctrl.bw_read::cpu.inst             1344672                       # Total read bandwidth from this memory (bytes/s)
system.mem_ctrl.bw_read::cpu.data            75660508                       # Total read bandwidth from this memory (bytes/s)
system.mem_ctrl.bw_read::total               77005180                       # Total read bandwidth from this memory (bytes/s)
system.mem_ctrl.bw_inst_read::cpu.inst        1344672                       # Instruction read bandwidth from this memory (bytes/s)
system.mem_ctrl.bw_inst_read::total           1344672                       # Instruction read bandwidth from this memory (bytes/s)
system.mem_ctrl.bw_write::writebacks           586109                       # Write bandwidth from this memory (bytes/s)
system.mem_ctrl.bw_write::total                586109                       # Write bandwidth from this memory (bytes/s)
system.mem_ctrl.bw_total::writebacks           586109                       # Total bandwidth to/from this memory (bytes/s)
system.mem_ctrl.bw_total::cpu.inst            1344672                       # Total bandwidth to/from this memory (bytes/s)
system.mem_ctrl.bw_total::cpu.data           75660508                       # Total bandwidth to/from this memory (bytes/s)
system.mem_ctrl.bw_total::total              77591289                       # Total bandwidth to/from this memory (bytes/s)
system.mem_ctrl.readReqs                        66086                       # Number of read requests accepted
system.mem_ctrl.writeReqs                         503                       # Number of write requests accepted
system.mem_ctrl.readBursts                      66086                       # Number of DRAM read bursts, including those serviced by the write queue
system.mem_ctrl.writeBursts                       503                       # Number of DRAM write bursts, including those merged in the write queue
system.mem_ctrl.bytesReadDRAM                 4229440                       # Total number of bytes read from DRAM
system.mem_ctrl.bytesReadWrQ                       64                       # Total number of bytes read from write queue
system.mem_ctrl.bytesWritten                    31040                       # Total number of bytes written to DRAM
system.mem_ctrl.bytesReadSys                  4229504                       # Total read bytes from the system interface side
system.mem_ctrl.bytesWrittenSys                 32192                       # Total written bytes from the system interface side
system.mem_ctrl.servicedByWrQ                       1                       # Number of DRAM read bursts serviced by the write queue
system.mem_ctrl.mergedWrBursts                      0                       # Number of DRAM write bursts merged with an existing one
system.mem_ctrl.neitherReadNorWriteReqs             0                       # Number of requests that are neither read nor write
system.mem_ctrl.perBankRdBursts::0               4216                       # Per bank write bursts
system.mem_ctrl.perBankRdBursts::1               4207                       # Per bank write bursts
system.mem_ctrl.perBankRdBursts::2               4178                       # Per bank write bursts
system.mem_ctrl.perBankRdBursts::3               4125                       # Per bank write bursts
system.mem_ctrl.perBankRdBursts::4               4256                       # Per bank write bursts
system.mem_ctrl.perBankRdBursts::5               4266                       # Per bank write bursts
system.mem_ctrl.perBankRdBursts::6               4263                       # Per bank write bursts
system.mem_ctrl.perBankRdBursts::7               4133                       # Per bank write bursts
system.mem_ctrl.perBankRdBursts::8               4062                       # Per bank write bursts
system.mem_ctrl.perBankRdBursts::9               4143                       # Per bank write bursts
system.mem_ctrl.perBankRdBursts::10              4208                       # Per bank write bursts
system.mem_ctrl.perBankRdBursts::11              4093                       # Per bank write bursts
system.mem_ctrl.perBankRdBursts::12              3879                       # Per bank write bursts
system.mem_ctrl.perBankRdBursts::13              3916                       # Per bank write bursts
system.mem_ctrl.perBankRdBursts::14              3979                       # Per bank write bursts
system.mem_ctrl.perBankRdBursts::15              4161                       # Per bank write bursts
system.mem_ctrl.perBankWrBursts::0                 26                       # Per bank write bursts
system.mem_ctrl.perBankWrBursts::1                 35                       # Per bank write bursts
system.mem_ctrl.perBankWrBursts::2                  0                       # Per bank write bursts
system.mem_ctrl.perBankWrBursts::3                  3                       # Per bank write bursts
system.mem_ctrl.perBankWrBursts::4                 45                       # Per bank write bursts
system.mem_ctrl.perBankWrBursts::5                 84                       # Per bank write bursts
system.mem_ctrl.perBankWrBursts::6                 74                       # Per bank write bursts
system.mem_ctrl.perBankWrBursts::7                 55                       # Per bank write bursts
system.mem_ctrl.perBankWrBursts::8                  8                       # Per bank write bursts
system.mem_ctrl.perBankWrBursts::9                 43                       # Per bank write bursts
system.mem_ctrl.perBankWrBursts::10                63                       # Per bank write bursts
system.mem_ctrl.perBankWrBursts::11                13                       # Per bank write bursts
system.mem_ctrl.perBankWrBursts::12                 2                       # Per bank write bursts
system.mem_ctrl.perBankWrBursts::13                 0                       # Per bank write bursts
system.mem_ctrl.perBankWrBursts::14                25                       # Per bank write bursts
system.mem_ctrl.perBankWrBursts::15                 9                       # Per bank write bursts
system.mem_ctrl.numRdRetry                          0                       # Number of times read queue was full causing retry
system.mem_ctrl.numWrRetry                          0                       # Number of times write queue was full causing retry
system.mem_ctrl.totGap                    54924857600                       # Total gap between requests
system.mem_ctrl.readPktSize::0                      0                       # Read request sizes (log2)
system.mem_ctrl.readPktSize::1                      0                       # Read request sizes (log2)
system.mem_ctrl.readPktSize::2                      0                       # Read request sizes (log2)
system.mem_ctrl.readPktSize::3                      0                       # Read request sizes (log2)
system.mem_ctrl.readPktSize::4                      0                       # Read request sizes (log2)
system.mem_ctrl.readPktSize::5                      0                       # Read request sizes (log2)
system.mem_ctrl.readPktSize::6                  66086                       # Read request sizes (log2)
system.mem_ctrl.writePktSize::0                     0                       # Write request sizes (log2)
system.mem_ctrl.writePktSize::1                     0                       # Write request sizes (log2)
system.mem_ctrl.writePktSize::2                     0                       # Write request sizes (log2)
system.mem_ctrl.writePktSize::3                     0                       # Write request sizes (log2)
system.mem_ctrl.writePktSize::4                     0                       # Write request sizes (log2)
system.mem_ctrl.writePktSize::5                     0                       # Write request sizes (log2)
system.mem_ctrl.writePktSize::6                   503                       # Write request sizes (log2)
system.mem_ctrl.rdQLenPdf::0                    65810                       # What read queue length does an incoming req see
system.mem_ctrl.rdQLenPdf::1                      261                       # What read queue length does an incoming req see
system.mem_ctrl.rdQLenPdf::2                       14                       # What read queue length does an incoming req see
system.mem_ctrl.rdQLenPdf::3                        0                       # What read queue length does an incoming req see
system.mem_ctrl.rdQLenPdf::4                        0                       # What read queue length does an incoming req see
system.mem_ctrl.rdQLenPdf::5                        0                       # What read queue length does an incoming req see
system.mem_ctrl.rdQLenPdf::6                        0                       # What read queue length does an incoming req see
system.mem_ctrl.rdQLenPdf::7                        0                       # What read queue length does an incoming req see
system.mem_ctrl.rdQLenPdf::8                        0                       # What read queue length does an incoming req see
system.mem_ctrl.rdQLenPdf::9                        0                       # What read queue length does an incoming req see
system.mem_ctrl.rdQLenPdf::10                       0                       # What read queue length does an incoming req see
system.mem_ctrl.rdQLenPdf::11                       0                       # What read queue length does an incoming req see
system.mem_ctrl.rdQLenPdf::12                       0                       # What read queue length does an incoming req see
system.mem_ctrl.rdQLenPdf::13                       0                       # What read queue length does an incoming req see
system.mem_ctrl.rdQLenPdf::14                       0                       # What read queue length does an incoming req see
system.mem_ctrl.rdQLenPdf::15                       0                       # What read queue length does an incoming req see
system.mem_ctrl.rdQLenPdf::16                       0                       # What read queue length does an incoming req see
system.mem_ctrl.rdQLenPdf::17                       0                       # What read queue length does an incoming req see
system.mem_ctrl.rdQLenPdf::18                       0                       # What read queue length does an incoming req see
system.mem_ctrl.rdQLenPdf::19                       0                       # What read queue length does an incoming req see
system.mem_ctrl.rdQLenPdf::20                       0                       # What read queue length does an incoming req see
system.mem_ctrl.rdQLenPdf::21                       0                       # What read queue length does an incoming req see
system.mem_ctrl.rdQLenPdf::22                       0                       # What read queue length does an incoming req see
system.mem_ctrl.rdQLenPdf::23                       0                       # What read queue length does an incoming req see
system.mem_ctrl.rdQLenPdf::24                       0                       # What read queue length does an incoming req see
system.mem_ctrl.rdQLenPdf::25                       0                       # What read queue length does an incoming req see
system.mem_ctrl.rdQLenPdf::26                       0                       # What read queue length does an incoming req see
system.mem_ctrl.rdQLenPdf::27                       0                       # What read queue length does an incoming req see
system.mem_ctrl.rdQLenPdf::28                       0                       # What read queue length does an incoming req see
system.mem_ctrl.rdQLenPdf::29                       0                       # What read queue length does an incoming req see
system.mem_ctrl.rdQLenPdf::30                       0                       # What read queue length does an incoming req see
system.mem_ctrl.rdQLenPdf::31                       0                       # What read queue length does an incoming req see
system.mem_ctrl.wrQLenPdf::0                        1                       # What write queue length does an incoming req see
system.mem_ctrl.wrQLenPdf::1                        1                       # What write queue length does an incoming req see
system.mem_ctrl.wrQLenPdf::2                        1                       # What write queue length does an incoming req see
system.mem_ctrl.wrQLenPdf::3                        1                       # What write queue length does an incoming req see
system.mem_ctrl.wrQLenPdf::4                        1                       # What write queue length does an incoming req see
system.mem_ctrl.wrQLenPdf::5                        1                       # What write queue length does an incoming req see
system.mem_ctrl.wrQLenPdf::6                        1                       # What write queue length does an incoming req see
system.mem_ctrl.wrQLenPdf::7                        1                       # What write queue length does an incoming req see
system.mem_ctrl.wrQLenPdf::8                        1                       # What write queue length does an incoming req see
system.mem_ctrl.wrQLenPdf::9                        1                       # What write queue length does an incoming req see
system.mem_ctrl.wrQLenPdf::10                       1                       # What write queue length does an incoming req see
system.mem_ctrl.wrQLenPdf::11                       1                       # What write queue length does an incoming req see
system.mem_ctrl.wrQLenPdf::12                       1                       # What write queue length does an incoming req see
system.mem_ctrl.wrQLenPdf::13                       1                       # What write queue length does an incoming req see
system.mem_ctrl.wrQLenPdf::14                       1                       # What write queue length does an incoming req see
system.mem_ctrl.wrQLenPdf::15                      11                       # What write queue length does an incoming req see
system.mem_ctrl.wrQLenPdf::16                      12                       # What write queue length does an incoming req see
system.mem_ctrl.wrQLenPdf::17                      28                       # What write queue length does an incoming req see
system.mem_ctrl.wrQLenPdf::18                      29                       # What write queue length does an incoming req see
system.mem_ctrl.wrQLenPdf::19                      29                       # What write queue length does an incoming req see
system.mem_ctrl.wrQLenPdf::20                      29                       # What write queue length does an incoming req see
system.mem_ctrl.wrQLenPdf::21                      29                       # What write queue length does an incoming req see
system.mem_ctrl.wrQLenPdf::22                      29                       # What write queue length does an incoming req see
system.mem_ctrl.wrQLenPdf::23                      29                       # What write queue length does an incoming req see
system.mem_ctrl.wrQLenPdf::24                      29                       # What write queue length does an incoming req see
system.mem_ctrl.wrQLenPdf::25                      29                       # What write queue length does an incoming req see
system.mem_ctrl.wrQLenPdf::26                      29                       # What write queue length does an incoming req see
system.mem_ctrl.wrQLenPdf::27                      30                       # What write queue length does an incoming req see
system.mem_ctrl.wrQLenPdf::28                      29                       # What write queue length does an incoming req see
system.mem_ctrl.wrQLenPdf::29                      29                       # What write queue length does an incoming req see
system.mem_ctrl.wrQLenPdf::30                      29                       # What write queue length does an incoming req see
system.mem_ctrl.wrQLenPdf::31                      29                       # What write queue length does an incoming req see
system.mem_ctrl.wrQLenPdf::32                      30                       # What write queue length does an incoming req see
system.mem_ctrl.wrQLenPdf::33                       0                       # What write queue length does an incoming req see
system.mem_ctrl.wrQLenPdf::34                       0                       # What write queue length does an incoming req see
system.mem_ctrl.wrQLenPdf::35                       0                       # What write queue length does an incoming req see
system.mem_ctrl.wrQLenPdf::36                       0                       # What write queue length does an incoming req see
system.mem_ctrl.wrQLenPdf::37                       0                       # What write queue length does an incoming req see
system.mem_ctrl.wrQLenPdf::38                       0                       # What write queue length does an incoming req see
system.mem_ctrl.wrQLenPdf::39                       0                       # What write queue length does an incoming req see
system.mem_ctrl.wrQLenPdf::40                       0                       # What write queue length does an incoming req see
system.mem_ctrl.wrQLenPdf::41                       0                       # What write queue length does an incoming req see
system.mem_ctrl.wrQLenPdf::42                       0                       # What write queue length does an incoming req see
system.mem_ctrl.wrQLenPdf::43                       0                       # What write queue length does an incoming req see
system.mem_ctrl.wrQLenPdf::44                       0                       # What write queue length does an incoming req see
system.mem_ctrl.wrQLenPdf::45                       0                       # What write queue length does an incoming req see
system.mem_ctrl.wrQLenPdf::46                       0                       # What write queue length does an incoming req see
system.mem_ctrl.wrQLenPdf::47                       0                       # What write queue length does an incoming req see
system.mem_ctrl.wrQLenPdf::48                       0                       # What write queue length does an incoming req see
system.mem_ctrl.wrQLenPdf::49                       0                       # What write queue length does an incoming req see
system.mem_ctrl.wrQLenPdf::50                       0                       # What write queue length does an incoming req see
system.mem_ctrl.wrQLenPdf::51                       0                       # What write queue length does an incoming req see
system.mem_ctrl.wrQLenPdf::52                       0                       # What write queue length does an incoming req see
system.mem_ctrl.wrQLenPdf::53                       0                       # What write queue length does an incoming req see
system.mem_ctrl.wrQLenPdf::54                       0                       # What write queue length does an incoming req see
system.mem_ctrl.wrQLenPdf::55                       0                       # What write queue length does an incoming req see
system.mem_ctrl.wrQLenPdf::56                       0                       # What write queue length does an incoming req see
system.mem_ctrl.wrQLenPdf::57                       0                       # What write queue length does an incoming req see
system.mem_ctrl.wrQLenPdf::58                       0                       # What write queue length does an incoming req see
system.mem_ctrl.wrQLenPdf::59                       0                       # What write queue length does an incoming req see
system.mem_ctrl.wrQLenPdf::60                       0                       # What write queue length does an incoming req see
system.mem_ctrl.wrQLenPdf::61                       0                       # What write queue length does an incoming req see
system.mem_ctrl.wrQLenPdf::62                       0                       # What write queue length does an incoming req see
system.mem_ctrl.wrQLenPdf::63                       0                       # What write queue length does an incoming req see
system.mem_ctrl.bytesPerActivate::samples         6209                       # Bytes accessed per row activation
system.mem_ctrl.bytesPerActivate::mean     685.961669                       # Bytes accessed per row activation
system.mem_ctrl.bytesPerActivate::gmean    489.697305                       # Bytes accessed per row activation
system.mem_ctrl.bytesPerActivate::stdev    408.390970                       # Bytes accessed per row activation
system.mem_ctrl.bytesPerActivate::0-127           173      2.79%      2.79% # Bytes accessed per row activation
system.mem_ctrl.bytesPerActivate::128-255         1658     26.70%     29.49% # Bytes accessed per row activation
system.mem_ctrl.bytesPerActivate::256-383          202      3.25%     32.74% # Bytes accessed per row activation
system.mem_ctrl.bytesPerActivate::384-511          174      2.80%     35.55% # Bytes accessed per row activation
system.mem_ctrl.bytesPerActivate::512-639          165      2.66%     38.20% # Bytes accessed per row activation
system.mem_ctrl.bytesPerActivate::640-767          163      2.63%     40.83% # Bytes accessed per row activation
system.mem_ctrl.bytesPerActivate::768-895          134      2.16%     42.99% # Bytes accessed per row activation
system.mem_ctrl.bytesPerActivate::896-1023           80      1.29%     44.27% # Bytes accessed per row activation
system.mem_ctrl.bytesPerActivate::1024-1151         3460     55.73%    100.00% # Bytes accessed per row activation
system.mem_ctrl.bytesPerActivate::total          6209                       # Bytes accessed per row activation
system.mem_ctrl.rdPerTurnAround::samples           29                       # Reads before turning the bus around for writes
system.mem_ctrl.rdPerTurnAround::mean     2278.689655                       # Reads before turning the bus around for writes
system.mem_ctrl.rdPerTurnAround::gmean      39.812698                       # Reads before turning the bus around for writes
system.mem_ctrl.rdPerTurnAround::stdev   11132.296038                       # Reads before turning the bus around for writes
system.mem_ctrl.rdPerTurnAround::0-2047            27     93.10%     93.10% # Reads before turning the bus around for writes
system.mem_ctrl.rdPerTurnAround::2048-4095            1      3.45%     96.55% # Reads before turning the bus around for writes
system.mem_ctrl.rdPerTurnAround::59392-61439            1      3.45%    100.00% # Reads before turning the bus around for writes
system.mem_ctrl.rdPerTurnAround::total             29                       # Reads before turning the bus around for writes
system.mem_ctrl.wrPerTurnAround::samples           29                       # Writes before turning the bus around for reads
system.mem_ctrl.wrPerTurnAround::mean       16.724138                       # Writes before turning the bus around for reads
system.mem_ctrl.wrPerTurnAround::gmean      16.698085                       # Writes before turning the bus around for reads
system.mem_ctrl.wrPerTurnAround::stdev       0.959782                       # Writes before turning the bus around for reads
system.mem_ctrl.wrPerTurnAround::16                18     62.07%     62.07% # Writes before turning the bus around for reads
system.mem_ctrl.wrPerTurnAround::17                 1      3.45%     65.52% # Writes before turning the bus around for reads
system.mem_ctrl.wrPerTurnAround::18                10     34.48%    100.00% # Writes before turning the bus around for reads
system.mem_ctrl.wrPerTurnAround::total             29                       # Writes before turning the bus around for reads
system.mem_ctrl.totQLat                     718256456                       # Total ticks spent queuing
system.mem_ctrl.totMemAccLat               1831260026                       # Total ticks spent from burst creation until serviced by the DRAM
system.mem_ctrl.totBusLat                   247950920                       # Total ticks spent in databus transfers
system.mem_ctrl.avgQLat                      10868.68                       # Average queueing delay per DRAM burst
system.mem_ctrl.avgBusLat                     3752.00                       # Average bus latency per DRAM burst
system.mem_ctrl.avgMemAccLat                 27710.68                       # Average memory access latency per DRAM burst
system.mem_ctrl.avgRdBW                         77.00                       # Average DRAM read bandwidth in MiByte/s
system.mem_ctrl.avgWrBW                          0.57                       # Average achieved write bandwidth in MiByte/s
system.mem_ctrl.avgRdBWSys                      77.01                       # Average system read bandwidth in MiByte/s
system.mem_ctrl.avgWrBWSys                       0.59                       # Average system write bandwidth in MiByte/s
system.mem_ctrl.peakBW                       17057.00                       # Theoretical peak bandwidth in MiByte/s
system.mem_ctrl.busUtil                          0.45                       # Data bus utilization in percentage
system.mem_ctrl.busUtilRead                      0.45                       # Data bus utilization in percentage for reads
system.mem_ctrl.busUtilWrite                     0.00                       # Data bus utilization in percentage for writes
system.mem_ctrl.avgRdQLen                        1.00                       # Average read queue length when enqueuing
system.mem_ctrl.avgWrQLen                       13.70                       # Average write queue length when enqueuing
system.mem_ctrl.readRowHits                     59950                       # Number of row buffer hits during reads
system.mem_ctrl.writeRowHits                      404                       # Number of row buffer hits during writes
system.mem_ctrl.readRowHitRate                  90.72                       # Row buffer hit rate for reads
system.mem_ctrl.writeRowHitRate                 80.32                       # Row buffer hit rate for writes
system.mem_ctrl.avgGap                      824833.80                       # Average gap between requests
system.mem_ctrl.pageHitRate                     90.64                       # Row buffer hit rate, read and write combined
system.mem_ctrl_0.actEnergy              33713971.200000                       # Energy for activate commands per rank (pJ)
system.mem_ctrl_0.preEnergy              16614869.040000                       # Energy for precharge commands per rank (pJ)
system.mem_ctrl_0.readEnergy             222673756.032000                       # Energy for read commands per rank (pJ)
system.mem_ctrl_0.writeEnergy            1638243.264000                       # Energy for write commands per rank (pJ)
system.mem_ctrl_0.refreshEnergy          689731210.560000                       # Energy for refresh commands per rank (pJ)
system.mem_ctrl_0.actBackEnergy          570613464.960000                       # Energy for active background per rank (pJ)
system.mem_ctrl_0.preBackEnergy          31314946.152000                       # Energy for precharge background per rank (pJ)
system.mem_ctrl_0.actPowerDownEnergy     3374941364.256000                       # Energy for active power-down per rank (pJ)
system.mem_ctrl_0.prePowerDownEnergy     289945960.416000                       # Energy for precharge power-down per rank (pJ)
system.mem_ctrl_0.selfRefreshEnergy      11255388078.816000                       # Energy for self refresh per rank (pJ)
system.mem_ctrl_0.totalEnergy            16486575864.695999                       # Total energy per rank (pJ)
system.mem_ctrl_0.averagePower             300.165631                       # Core power per rank (mW)
system.mem_ctrl_0.totalIdleTime           53773531188                       # Total Idle time Per DRAM Rank
system.mem_ctrl_0.memoryStateTime::IDLE      23397600                       # Time in different power states
system.mem_ctrl_0.memoryStateTime::REF      278398000                       # Time in different power states
system.mem_ctrl_0.memoryStateTime::SREF   46819847350                       # Time in different power states
system.mem_ctrl_0.memoryStateTime::PRE_PDN    561905776                       # Time in different power states
system.mem_ctrl_0.memoryStateTime::ACT      849376136                       # Time in different power states
system.mem_ctrl_0.memoryStateTime::ACT_PDN   6392003538                       # Time in different power states
system.mem_ctrl_1.actEnergy              31775417.856000                       # Energy for activate commands per rank (pJ)
system.mem_ctrl_1.preEnergy              15673619.808000                       # Energy for precharge commands per rank (pJ)
system.mem_ctrl_1.readEnergy             214711666.848000                       # Energy for read commands per rank (pJ)
system.mem_ctrl_1.writeEnergy            829297.056000                       # Energy for write commands per rank (pJ)
system.mem_ctrl_1.refreshEnergy          672326778.144000                       # Energy for refresh commands per rank (pJ)
system.mem_ctrl_1.actBackEnergy          556378091.808000                       # Energy for active background per rank (pJ)
system.mem_ctrl_1.preBackEnergy          32501891.352000                       # Energy for precharge background per rank (pJ)
system.mem_ctrl_1.actPowerDownEnergy     3271266265.344000                       # Energy for active power-down per rank (pJ)
system.mem_ctrl_1.prePowerDownEnergy     289672979.904000                       # Energy for precharge power-down per rank (pJ)
system.mem_ctrl_1.selfRefreshEnergy      11309051148.863998                       # Energy for self refresh per rank (pJ)
system.mem_ctrl_1.totalEnergy            16394187156.983997                       # Total energy per rank (pJ)
system.mem_ctrl_1.averagePower             298.483541                       # Core power per rank (mW)
system.mem_ctrl_1.totalIdleTime           53797863802                       # Total Idle time Per DRAM Rank
system.mem_ctrl_1.memoryStateTime::IDLE      27174400                       # Time in different power states
system.mem_ctrl_1.memoryStateTime::REF      271396000                       # Time in different power states
system.mem_ctrl_1.memoryStateTime::SREF   47041010830                       # Time in different power states
system.mem_ctrl_1.memoryStateTime::PRE_PDN    561392318                       # Time in different power states
system.mem_ctrl_1.memoryStateTime::ACT      828455840                       # Time in different power states
system.mem_ctrl_1.memoryStateTime::ACT_PDN   6195499012                       # Time in different power states
system.pwrStateResidencyTicks::UNDEFINED  54924928400                       # Cumulative time (in ticks) in various power states
system.cpu.branchPred.lookups                      82                       # Number of BP lookups
system.cpu.branchPred.condPredicted                82                       # Number of conditional branches predicted
system.cpu.branchPred.condIncorrect                32                       # Number of conditional branches incorrect
system.cpu.branchPred.BTBLookups                   37                       # Number of BTB lookups
system.cpu.branchPred.BTBHits                       0                       # Number of BTB hits
system.cpu.branchPred.BTBCorrect                    0                       # Number of correct BTB predictions (this stat may not work properly.
system.cpu.branchPred.BTBHitPct              0.000000                       # BTB Hit Percentage
system.cpu.branchPred.usedRAS                       0                       # Number of times the RAS was used to get a target.
system.cpu.branchPred.RASInCorrect                  0                       # Number of incorrect RAS predictions.
system.cpu.branchPred.indirectLookups              37                       # Number of indirect predictor lookups.
system.cpu.branchPred.indirectHits                  0                       # Number of indirect target hits.
system.cpu.branchPred.indirectMisses               37                       # Number of indirect misses.
system.cpu.branchPredindirectMispredicted           12                       # Number of mispredicted indirect branches.
system.cpu.dtb.walker.pwrStateResidencyTicks::UNDEFINED  54924928400                       # Cumulative time (in ticks) in various power states
system.cpu.dtb.rdAccesses                    26909323                       # TLB accesses on read requests
system.cpu.dtb.wrAccesses                     7334875                       # TLB accesses on write requests
system.cpu.dtb.rdMisses                          2851                       # TLB misses on read requests
system.cpu.dtb.wrMisses                        116849                       # TLB misses on write requests
system.cpu.apic_clk_domain.clock                 6400                       # Clock period in ticks
system.cpu.interrupts.pwrStateResidencyTicks::UNDEFINED  54924928400                       # Cumulative time (in ticks) in various power states
system.cpu.itb.walker.pwrStateResidencyTicks::UNDEFINED  54924928400                       # Cumulative time (in ticks) in various power states
system.cpu.itb.rdAccesses                           0                       # TLB accesses on read requests
system.cpu.itb.wrAccesses                    18313229                       # TLB accesses on write requests
system.cpu.itb.rdMisses                             0                       # TLB misses on read requests
system.cpu.itb.wrMisses                            90                       # TLB misses on write requests
system.cpu.workload.numSyscalls                    33                       # Number of system calls
system.cpu.pwrStateResidencyTicks::ON     54924928400                       # Cumulative time (in ticks) in various power states
system.cpu.numCycles                        137312321                       # number of cpu cycles simulated
system.cpu.numWorkItemsStarted                      0                       # number of work items this cpu started
system.cpu.numWorkItemsCompleted                    0                       # number of work items this cpu completed
system.cpu.committedInsts                    47700244                       # Number of instructions committed
system.cpu.committedOps                      82046706                       # Number of ops (including micro ops) committed
system.cpu.discardedOps                      13323093                       # Number of ops (including micro ops) which were discarded before commit
system.cpu.numFetchSuspends                         0                       # Number of times Execute suspended instruction fetching
system.cpu.cpi                               2.878650                       # CPI: cycles per instruction
system.cpu.ipc                               0.347385                       # IPC: instructions per cycle
system.cpu.op_class_0::No_OpClass                1287      0.00%      0.00% # Class of committed instruction
system.cpu.op_class_0::IntAlu                50852257     61.98%     61.98% # Class of committed instruction
system.cpu.op_class_0::IntMult                   1192      0.00%     61.98% # Class of committed instruction
system.cpu.op_class_0::IntDiv                    1131      0.00%     61.98% # Class of committed instruction
system.cpu.op_class_0::FloatAdd                  2227      0.00%     61.99% # Class of committed instruction
system.cpu.op_class_0::FloatCmp                     0      0.00%     61.99% # Class of committed instruction
system.cpu.op_class_0::FloatCvt                     0      0.00%     61.99% # Class of committed instruction
system.cpu.op_class_0::FloatMult                    0      0.00%     61.99% # Class of committed instruction
system.cpu.op_class_0::FloatMultAcc                 0      0.00%     61.99% # Class of committed instruction
system.cpu.op_class_0::FloatDiv                     0      0.00%     61.99% # Class of committed instruction
system.cpu.op_class_0::FloatMisc                    0      0.00%     61.99% # Class of committed instruction
system.cpu.op_class_0::FloatSqrt                    0      0.00%     61.99% # Class of committed instruction
system.cpu.op_class_0::SimdAdd                      0      0.00%     61.99% # Class of committed instruction
system.cpu.op_class_0::SimdAddAcc                   0      0.00%     61.99% # Class of committed instruction
system.cpu.op_class_0::SimdAlu                      0      0.00%     61.99% # Class of committed instruction
system.cpu.op_class_0::SimdCmp                      0      0.00%     61.99% # Class of committed instruction
system.cpu.op_class_0::SimdCvt                      0      0.00%     61.99% # Class of committed instruction
system.cpu.op_class_0::SimdMisc                     0      0.00%     61.99% # Class of committed instruction
system.cpu.op_class_0::SimdMult                     0      0.00%     61.99% # Class of committed instruction
system.cpu.op_class_0::SimdMultAcc                  0      0.00%     61.99% # Class of committed instruction
system.cpu.op_class_0::SimdShift                    0      0.00%     61.99% # Class of committed instruction
system.cpu.op_class_0::SimdShiftAcc                 0      0.00%     61.99% # Class of committed instruction
system.cpu.op_class_0::SimdSqrt                     0      0.00%     61.99% # Class of committed instruction
system.cpu.op_class_0::SimdFloatAdd                 0      0.00%     61.99% # Class of committed instruction
system.cpu.op_class_0::SimdFloatAlu                 0      0.00%     61.99% # Class of committed instruction
system.cpu.op_class_0::SimdFloatCmp                 0      0.00%     61.99% # Class of committed instruction
system.cpu.op_class_0::SimdFloatCvt                 0      0.00%     61.99% # Class of committed instruction
system.cpu.op_class_0::SimdFloatDiv                 0      0.00%     61.99% # Class of committed instruction
system.cpu.op_class_0::SimdFloatMisc                0      0.00%     61.99% # Class of committed instruction
system.cpu.op_class_0::SimdFloatMult                0      0.00%     61.99% # Class of committed instruction
system.cpu.op_class_0::SimdFloatMultAcc             0      0.00%     61.99% # Class of committed instruction
system.cpu.op_class_0::SimdFloatSqrt                0      0.00%     61.99% # Class of committed instruction
system.cpu.op_class_0::MemRead               23853209     29.07%     91.06% # Class of committed instruction
system.cpu.op_class_0::MemWrite               7334237      8.94%    100.00% # Class of committed instruction
system.cpu.op_class_0::FloatMemRead               782      0.00%    100.00% # Class of committed instruction
system.cpu.op_class_0::FloatMemWrite              384      0.00%    100.00% # Class of committed instruction
system.cpu.op_class_0::IprAccess                    0      0.00%    100.00% # Class of committed instruction
system.cpu.op_class_0::InstPrefetch                 0      0.00%    100.00% # Class of committed instruction
system.cpu.op_class_0::total                 82046706                       # Class of committed instruction
system.cpu.tickCycles                       126506346                       # Number of cycles that the object actually ticked
system.cpu.idleCycles                        10805975                       # Total number of cycles that the object has spent stopped
system.cpu.dcache.tags.pwrStateResidencyTicks::UNDEFINED  54924928400                       # Cumulative time (in ticks) in various power states
system.cpu.dcache.tags.replacements           1278653                       # number of replacements
system.cpu.dcache.tags.tagsinuse          1022.330810                       # Cycle average of tags in use
system.cpu.dcache.tags.total_refs            32897465                       # Total number of references to valid blocks.
system.cpu.dcache.tags.sampled_refs           1279677                       # Sample count of references to valid blocks.
system.cpu.dcache.tags.avg_refs             25.707632                       # Average number of references to valid blocks.
system.cpu.dcache.tags.warmup_cycle         277346000                       # Cycle when the warmup percentage was hit.
system.cpu.dcache.tags.occ_blocks::cpu.data  1022.330810                       # Average occupied blocks per requestor
system.cpu.dcache.tags.occ_percent::cpu.data     0.998370                       # Average percentage of cache occupancy
system.cpu.dcache.tags.occ_percent::total     0.998370                       # Average percentage of cache occupancy
system.cpu.dcache.tags.occ_task_id_blocks::1024         1024                       # Occupied blocks per task id
system.cpu.dcache.tags.age_task_id_blocks_1024::0           37                       # Occupied blocks per task id
system.cpu.dcache.tags.age_task_id_blocks_1024::1          370                       # Occupied blocks per task id
system.cpu.dcache.tags.age_task_id_blocks_1024::2          615                       # Occupied blocks per task id
system.cpu.dcache.tags.age_task_id_blocks_1024::4            2                       # Occupied blocks per task id
system.cpu.dcache.tags.occ_task_id_percent::1024            1                       # Percentage of cache occupancy per task id
system.cpu.dcache.tags.tag_accesses          69759649                       # Number of tag accesses
system.cpu.dcache.tags.data_accesses         69759649                       # Number of data accesses
system.cpu.dcache.pwrStateResidencyTicks::UNDEFINED  54924928400                       # Cumulative time (in ticks) in various power states
system.cpu.dcache.ReadReq_hits::cpu.data     26840518                       # number of ReadReq hits
system.cpu.dcache.ReadReq_hits::total        26840518                       # number of ReadReq hits
system.cpu.dcache.WriteReq_hits::cpu.data      6056947                       # number of WriteReq hits
system.cpu.dcache.WriteReq_hits::total        6056947                       # number of WriteReq hits
system.cpu.dcache.demand_hits::cpu.data      32897465                       # number of demand (read+write) hits
system.cpu.dcache.demand_hits::total         32897465                       # number of demand (read+write) hits
system.cpu.dcache.overall_hits::cpu.data     32897465                       # number of overall hits
system.cpu.dcache.overall_hits::total        32897465                       # number of overall hits
system.cpu.dcache.ReadReq_misses::cpu.data        64847                       # number of ReadReq misses
system.cpu.dcache.ReadReq_misses::total         64847                       # number of ReadReq misses
system.cpu.dcache.WriteReq_misses::cpu.data      1277674                       # number of WriteReq misses
system.cpu.dcache.WriteReq_misses::total      1277674                       # number of WriteReq misses
system.cpu.dcache.demand_misses::cpu.data      1342521                       # number of demand (read+write) misses
system.cpu.dcache.demand_misses::total        1342521                       # number of demand (read+write) misses
system.cpu.dcache.overall_misses::cpu.data      1342521                       # number of overall misses
system.cpu.dcache.overall_misses::total       1342521                       # number of overall misses
system.cpu.dcache.ReadReq_miss_latency::cpu.data    794255200                       # number of ReadReq miss cycles
system.cpu.dcache.ReadReq_miss_latency::total    794255200                       # number of ReadReq miss cycles
system.cpu.dcache.WriteReq_miss_latency::cpu.data  20231442800                       # number of WriteReq miss cycles
system.cpu.dcache.WriteReq_miss_latency::total  20231442800                       # number of WriteReq miss cycles
system.cpu.dcache.demand_miss_latency::cpu.data  21025698000                       # number of demand (read+write) miss cycles
system.cpu.dcache.demand_miss_latency::total  21025698000                       # number of demand (read+write) miss cycles
system.cpu.dcache.overall_miss_latency::cpu.data  21025698000                       # number of overall miss cycles
system.cpu.dcache.overall_miss_latency::total  21025698000                       # number of overall miss cycles
system.cpu.dcache.ReadReq_accesses::cpu.data     26905365                       # number of ReadReq accesses(hits+misses)
system.cpu.dcache.ReadReq_accesses::total     26905365                       # number of ReadReq accesses(hits+misses)
system.cpu.dcache.WriteReq_accesses::cpu.data      7334621                       # number of WriteReq accesses(hits+misses)
system.cpu.dcache.WriteReq_accesses::total      7334621                       # number of WriteReq accesses(hits+misses)
system.cpu.dcache.demand_accesses::cpu.data     34239986                       # number of demand (read+write) accesses
system.cpu.dcache.demand_accesses::total     34239986                       # number of demand (read+write) accesses
system.cpu.dcache.overall_accesses::cpu.data     34239986                       # number of overall (read+write) accesses
system.cpu.dcache.overall_accesses::total     34239986                       # number of overall (read+write) accesses
system.cpu.dcache.ReadReq_miss_rate::cpu.data     0.002410                       # miss rate for ReadReq accesses
system.cpu.dcache.ReadReq_miss_rate::total     0.002410                       # miss rate for ReadReq accesses
system.cpu.dcache.WriteReq_miss_rate::cpu.data     0.174198                       # miss rate for WriteReq accesses
system.cpu.dcache.WriteReq_miss_rate::total     0.174198                       # miss rate for WriteReq accesses
system.cpu.dcache.demand_miss_rate::cpu.data     0.039209                       # miss rate for demand accesses
system.cpu.dcache.demand_miss_rate::total     0.039209                       # miss rate for demand accesses
system.cpu.dcache.overall_miss_rate::cpu.data     0.039209                       # miss rate for overall accesses
system.cpu.dcache.overall_miss_rate::total     0.039209                       # miss rate for overall accesses
system.cpu.dcache.ReadReq_avg_miss_latency::cpu.data 12248.141009                       # average ReadReq miss latency
system.cpu.dcache.ReadReq_avg_miss_latency::total 12248.141009                       # average ReadReq miss latency
system.cpu.dcache.WriteReq_avg_miss_latency::cpu.data 15834.589105                       # average WriteReq miss latency
system.cpu.dcache.WriteReq_avg_miss_latency::total 15834.589105                       # average WriteReq miss latency
system.cpu.dcache.demand_avg_miss_latency::cpu.data 15661.355018                       # average overall miss latency
system.cpu.dcache.demand_avg_miss_latency::total 15661.355018                       # average overall miss latency
system.cpu.dcache.overall_avg_miss_latency::cpu.data 15661.355018                       # average overall miss latency
system.cpu.dcache.overall_avg_miss_latency::total 15661.355018                       # average overall miss latency
system.cpu.dcache.blocked_cycles::no_mshrs            0                       # number of cycles access was blocked
system.cpu.dcache.blocked_cycles::no_targets            0                       # number of cycles access was blocked
system.cpu.dcache.blocked::no_mshrs                 0                       # number of cycles access was blocked
system.cpu.dcache.blocked::no_targets               0                       # number of cycles access was blocked
system.cpu.dcache.avg_blocked_cycles::no_mshrs          nan                       # average number of cycles each access was blocked
system.cpu.dcache.avg_blocked_cycles::no_targets          nan                       # average number of cycles each access was blocked
system.cpu.dcache.writebacks::writebacks      1276747                       # number of writebacks
system.cpu.dcache.writebacks::total           1276747                       # number of writebacks
system.cpu.dcache.ReadReq_mshr_hits::cpu.data           21                       # number of ReadReq MSHR hits
system.cpu.dcache.ReadReq_mshr_hits::total           21                       # number of ReadReq MSHR hits
system.cpu.dcache.WriteReq_mshr_hits::cpu.data        62823                       # number of WriteReq MSHR hits
system.cpu.dcache.WriteReq_mshr_hits::total        62823                       # number of WriteReq MSHR hits
system.cpu.dcache.demand_mshr_hits::cpu.data        62844                       # number of demand (read+write) MSHR hits
system.cpu.dcache.demand_mshr_hits::total        62844                       # number of demand (read+write) MSHR hits
system.cpu.dcache.overall_mshr_hits::cpu.data        62844                       # number of overall MSHR hits
system.cpu.dcache.overall_mshr_hits::total        62844                       # number of overall MSHR hits
system.cpu.dcache.ReadReq_mshr_misses::cpu.data        64826                       # number of ReadReq MSHR misses
system.cpu.dcache.ReadReq_mshr_misses::total        64826                       # number of ReadReq MSHR misses
system.cpu.dcache.WriteReq_mshr_misses::cpu.data      1214851                       # number of WriteReq MSHR misses
system.cpu.dcache.WriteReq_mshr_misses::total      1214851                       # number of WriteReq MSHR misses
system.cpu.dcache.demand_mshr_misses::cpu.data      1279677                       # number of demand (read+write) MSHR misses
system.cpu.dcache.demand_mshr_misses::total      1279677                       # number of demand (read+write) MSHR misses
system.cpu.dcache.overall_mshr_misses::cpu.data      1279677                       # number of overall MSHR misses
system.cpu.dcache.overall_mshr_misses::total      1279677                       # number of overall MSHR misses
system.cpu.dcache.ReadReq_mshr_miss_latency::cpu.data    740704000                       # number of ReadReq MSHR miss cycles
system.cpu.dcache.ReadReq_mshr_miss_latency::total    740704000                       # number of ReadReq MSHR miss cycles
system.cpu.dcache.WriteReq_mshr_miss_latency::cpu.data  15441445200                       # number of WriteReq MSHR miss cycles
system.cpu.dcache.WriteReq_mshr_miss_latency::total  15441445200                       # number of WriteReq MSHR miss cycles
system.cpu.dcache.demand_mshr_miss_latency::cpu.data  16182149200                       # number of demand (read+write) MSHR miss cycles
system.cpu.dcache.demand_mshr_miss_latency::total  16182149200                       # number of demand (read+write) MSHR miss cycles
system.cpu.dcache.overall_mshr_miss_latency::cpu.data  16182149200                       # number of overall MSHR miss cycles
system.cpu.dcache.overall_mshr_miss_latency::total  16182149200                       # number of overall MSHR miss cycles
system.cpu.dcache.ReadReq_mshr_miss_rate::cpu.data     0.002409                       # mshr miss rate for ReadReq accesses
system.cpu.dcache.ReadReq_mshr_miss_rate::total     0.002409                       # mshr miss rate for ReadReq accesses
system.cpu.dcache.WriteReq_mshr_miss_rate::cpu.data     0.165632                       # mshr miss rate for WriteReq accesses
system.cpu.dcache.WriteReq_mshr_miss_rate::total     0.165632                       # mshr miss rate for WriteReq accesses
system.cpu.dcache.demand_mshr_miss_rate::cpu.data     0.037374                       # mshr miss rate for demand accesses
system.cpu.dcache.demand_mshr_miss_rate::total     0.037374                       # mshr miss rate for demand accesses
system.cpu.dcache.overall_mshr_miss_rate::cpu.data     0.037374                       # mshr miss rate for overall accesses
system.cpu.dcache.overall_mshr_miss_rate::total     0.037374                       # mshr miss rate for overall accesses
system.cpu.dcache.ReadReq_avg_mshr_miss_latency::cpu.data 11426.032765                       # average ReadReq mshr miss latency
system.cpu.dcache.ReadReq_avg_mshr_miss_latency::total 11426.032765                       # average ReadReq mshr miss latency
system.cpu.dcache.WriteReq_avg_mshr_miss_latency::cpu.data 12710.567140                       # average WriteReq mshr miss latency
system.cpu.dcache.WriteReq_avg_mshr_miss_latency::total 12710.567140                       # average WriteReq mshr miss latency
system.cpu.dcache.demand_avg_mshr_miss_latency::cpu.data 12645.495074                       # average overall mshr miss latency
system.cpu.dcache.demand_avg_mshr_miss_latency::total 12645.495074                       # average overall mshr miss latency
system.cpu.dcache.overall_avg_mshr_miss_latency::cpu.data 12645.495074                       # average overall mshr miss latency
system.cpu.dcache.overall_avg_mshr_miss_latency::total 12645.495074                       # average overall mshr miss latency
system.cpu.icache.tags.pwrStateResidencyTicks::UNDEFINED  54924928400                       # Cumulative time (in ticks) in various power states
system.cpu.icache.tags.replacements               734                       # number of replacements
system.cpu.icache.tags.tagsinuse           494.620822                       # Cycle average of tags in use
system.cpu.icache.tags.total_refs            18311989                       # Total number of references to valid blocks.
system.cpu.icache.tags.sampled_refs              1239                       # Sample count of references to valid blocks.
system.cpu.icache.tags.avg_refs          14779.652139                       # Average number of references to valid blocks.
system.cpu.icache.tags.warmup_cycle                 0                       # Cycle when the warmup percentage was hit.
system.cpu.icache.tags.occ_blocks::cpu.inst   494.620822                       # Average occupied blocks per requestor
system.cpu.icache.tags.occ_percent::cpu.inst     0.966056                       # Average percentage of cache occupancy
system.cpu.icache.tags.occ_percent::total     0.966056                       # Average percentage of cache occupancy
system.cpu.icache.tags.occ_task_id_blocks::1024          505                       # Occupied blocks per task id
system.cpu.icache.tags.age_task_id_blocks_1024::0          109                       # Occupied blocks per task id
system.cpu.icache.tags.age_task_id_blocks_1024::1          122                       # Occupied blocks per task id
system.cpu.icache.tags.age_task_id_blocks_1024::4          274                       # Occupied blocks per task id
system.cpu.icache.tags.occ_task_id_percent::1024     0.986328                       # Percentage of cache occupancy per task id
system.cpu.icache.tags.tag_accesses          36627697                       # Number of tag accesses
system.cpu.icache.tags.data_accesses         36627697                       # Number of data accesses
system.cpu.icache.pwrStateResidencyTicks::UNDEFINED  54924928400                       # Cumulative time (in ticks) in various power states
system.cpu.icache.ReadReq_hits::cpu.inst     18311989                       # number of ReadReq hits
system.cpu.icache.ReadReq_hits::total        18311989                       # number of ReadReq hits
system.cpu.icache.demand_hits::cpu.inst      18311989                       # number of demand (read+write) hits
system.cpu.icache.demand_hits::total         18311989                       # number of demand (read+write) hits
system.cpu.icache.overall_hits::cpu.inst     18311989                       # number of overall hits
system.cpu.icache.overall_hits::total        18311989                       # number of overall hits
system.cpu.icache.ReadReq_misses::cpu.inst         1240                       # number of ReadReq misses
system.cpu.icache.ReadReq_misses::total          1240                       # number of ReadReq misses
system.cpu.icache.demand_misses::cpu.inst         1240                       # number of demand (read+write) misses
system.cpu.icache.demand_misses::total           1240                       # number of demand (read+write) misses
system.cpu.icache.overall_misses::cpu.inst         1240                       # number of overall misses
system.cpu.icache.overall_misses::total          1240                       # number of overall misses
system.cpu.icache.ReadReq_miss_latency::cpu.inst     83732800                       # number of ReadReq miss cycles
system.cpu.icache.ReadReq_miss_latency::total     83732800                       # number of ReadReq miss cycles
system.cpu.icache.demand_miss_latency::cpu.inst     83732800                       # number of demand (read+write) miss cycles
system.cpu.icache.demand_miss_latency::total     83732800                       # number of demand (read+write) miss cycles
system.cpu.icache.overall_miss_latency::cpu.inst     83732800                       # number of overall miss cycles
system.cpu.icache.overall_miss_latency::total     83732800                       # number of overall miss cycles
system.cpu.icache.ReadReq_accesses::cpu.inst     18313229                       # number of ReadReq accesses(hits+misses)
system.cpu.icache.ReadReq_accesses::total     18313229                       # number of ReadReq accesses(hits+misses)
system.cpu.icache.demand_accesses::cpu.inst     18313229                       # number of demand (read+write) accesses
system.cpu.icache.demand_accesses::total     18313229                       # number of demand (read+write) accesses
system.cpu.icache.overall_accesses::cpu.inst     18313229                       # number of overall (read+write) accesses
system.cpu.icache.overall_accesses::total     18313229                       # number of overall (read+write) accesses
system.cpu.icache.ReadReq_miss_rate::cpu.inst     0.000068                       # miss rate for ReadReq accesses
system.cpu.icache.ReadReq_miss_rate::total     0.000068                       # miss rate for ReadReq accesses
system.cpu.icache.demand_miss_rate::cpu.inst     0.000068                       # miss rate for demand accesses
system.cpu.icache.demand_miss_rate::total     0.000068                       # miss rate for demand accesses
system.cpu.icache.overall_miss_rate::cpu.inst     0.000068                       # miss rate for overall accesses
system.cpu.icache.overall_miss_rate::total     0.000068                       # miss rate for overall accesses
system.cpu.icache.ReadReq_avg_miss_latency::cpu.inst 67526.451613                       # average ReadReq miss latency
system.cpu.icache.ReadReq_avg_miss_latency::total 67526.451613                       # average ReadReq miss latency
system.cpu.icache.demand_avg_miss_latency::cpu.inst 67526.451613                       # average overall miss latency
system.cpu.icache.demand_avg_miss_latency::total 67526.451613                       # average overall miss latency
system.cpu.icache.overall_avg_miss_latency::cpu.inst 67526.451613                       # average overall miss latency
system.cpu.icache.overall_avg_miss_latency::total 67526.451613                       # average overall miss latency
system.cpu.icache.blocked_cycles::no_mshrs            0                       # number of cycles access was blocked
system.cpu.icache.blocked_cycles::no_targets            0                       # number of cycles access was blocked
system.cpu.icache.blocked::no_mshrs                 0                       # number of cycles access was blocked
system.cpu.icache.blocked::no_targets               0                       # number of cycles access was blocked
system.cpu.icache.avg_blocked_cycles::no_mshrs          nan                       # average number of cycles each access was blocked
system.cpu.icache.avg_blocked_cycles::no_targets          nan                       # average number of cycles each access was blocked
system.cpu.icache.ReadReq_mshr_misses::cpu.inst         1240                       # number of ReadReq MSHR misses
system.cpu.icache.ReadReq_mshr_misses::total         1240                       # number of ReadReq MSHR misses
system.cpu.icache.demand_mshr_misses::cpu.inst         1240                       # number of demand (read+write) MSHR misses
system.cpu.icache.demand_mshr_misses::total         1240                       # number of demand (read+write) MSHR misses
system.cpu.icache.overall_mshr_misses::cpu.inst         1240                       # number of overall MSHR misses
system.cpu.icache.overall_mshr_misses::total         1240                       # number of overall MSHR misses
system.cpu.icache.ReadReq_mshr_miss_latency::cpu.inst     82741600                       # number of ReadReq MSHR miss cycles
system.cpu.icache.ReadReq_mshr_miss_latency::total     82741600                       # number of ReadReq MSHR miss cycles
system.cpu.icache.demand_mshr_miss_latency::cpu.inst     82741600                       # number of demand (read+write) MSHR miss cycles
system.cpu.icache.demand_mshr_miss_latency::total     82741600                       # number of demand (read+write) MSHR miss cycles
system.cpu.icache.overall_mshr_miss_latency::cpu.inst     82741600                       # number of overall MSHR miss cycles
system.cpu.icache.overall_mshr_miss_latency::total     82741600                       # number of overall MSHR miss cycles
system.cpu.icache.ReadReq_mshr_miss_rate::cpu.inst     0.000068                       # mshr miss rate for ReadReq accesses
system.cpu.icache.ReadReq_mshr_miss_rate::total     0.000068                       # mshr miss rate for ReadReq accesses
system.cpu.icache.demand_mshr_miss_rate::cpu.inst     0.000068                       # mshr miss rate for demand accesses
system.cpu.icache.demand_mshr_miss_rate::total     0.000068                       # mshr miss rate for demand accesses
system.cpu.icache.overall_mshr_miss_rate::cpu.inst     0.000068                       # mshr miss rate for overall accesses
system.cpu.icache.overall_mshr_miss_rate::total     0.000068                       # mshr miss rate for overall accesses
system.cpu.icache.ReadReq_avg_mshr_miss_latency::cpu.inst 66727.096774                       # average ReadReq mshr miss latency
system.cpu.icache.ReadReq_avg_mshr_miss_latency::total 66727.096774                       # average ReadReq mshr miss latency
system.cpu.icache.demand_avg_mshr_miss_latency::cpu.inst 66727.096774                       # average overall mshr miss latency
system.cpu.icache.demand_avg_mshr_miss_latency::total 66727.096774                       # average overall mshr miss latency
system.cpu.icache.overall_avg_mshr_miss_latency::cpu.inst 66727.096774                       # average overall mshr miss latency
system.cpu.icache.overall_avg_mshr_miss_latency::total 66727.096774                       # average overall mshr miss latency
system.l2bus.snoop_filter.tot_requests        2560304                       # Total number of requests made to the snoop filter.
system.l2bus.snoop_filter.hit_single_requests      1279389                       # Number of requests hitting in the snoop filter with a single holder of the requested data.
system.l2bus.snoop_filter.hit_multi_requests            5                       # Number of requests hitting in the snoop filter with multiple (>1) holders of the requested data.
system.l2bus.snoop_filter.tot_snoops              232                       # Total number of snoops made to the snoop filter.
system.l2bus.snoop_filter.hit_single_snoops          232                       # Number of snoops hitting in the snoop filter with a single holder of the requested data.
system.l2bus.snoop_filter.hit_multi_snoops            0                       # Number of snoops hitting in the snoop filter with multiple (>1) holders of the requested data.
system.l2bus.pwrStateResidencyTicks::UNDEFINED  54924928400                       # Cumulative time (in ticks) in various power states
system.l2bus.trans_dist::ReadResp               66065                       # Transaction distribution
system.l2bus.trans_dist::WritebackDirty       1277250                       # Transaction distribution
system.l2bus.trans_dist::CleanEvict              4755                       # Transaction distribution
system.l2bus.trans_dist::ReadExReq            1214851                       # Transaction distribution
system.l2bus.trans_dist::ReadExResp           1214851                       # Transaction distribution
system.l2bus.trans_dist::ReadSharedReq          66066                       # Transaction distribution
system.l2bus.pkt_count_system.cpu.icache.mem_side::system.l2cache.cpu_side         3213                       # Packet count per connected master and slave (bytes)
system.l2bus.pkt_count_system.cpu.dcache.mem_side::system.l2cache.cpu_side      3838007                       # Packet count per connected master and slave (bytes)
system.l2bus.pkt_count::total                 3841220                       # Packet count per connected master and slave (bytes)
system.l2bus.pkt_size_system.cpu.icache.mem_side::system.l2cache.cpu_side        79296                       # Cumulative packet size per connected master and slave (bytes)
system.l2bus.pkt_size_system.cpu.dcache.mem_side::system.l2cache.cpu_side    163611136                       # Cumulative packet size per connected master and slave (bytes)
system.l2bus.pkt_size::total                163690432                       # Cumulative packet size per connected master and slave (bytes)
system.l2bus.snoops                              2618                       # Total snoops (count)
system.l2bus.snoopTraffic                       32192                       # Total snoop traffic (bytes)
system.l2bus.snoop_fanout::samples            1283535                       # Request fanout histogram
system.l2bus.snoop_fanout::mean              0.000186                       # Request fanout histogram
system.l2bus.snoop_fanout::stdev             0.013644                       # Request fanout histogram
system.l2bus.snoop_fanout::underflows               0      0.00%      0.00% # Request fanout histogram
system.l2bus.snoop_fanout::0                  1283296     99.98%     99.98% # Request fanout histogram
system.l2bus.snoop_fanout::1                      239      0.02%    100.00% # Request fanout histogram
system.l2bus.snoop_fanout::2                        0      0.00%    100.00% # Request fanout histogram
system.l2bus.snoop_fanout::overflows                0      0.00%    100.00% # Request fanout histogram
system.l2bus.snoop_fanout::min_value                0                       # Request fanout histogram
system.l2bus.snoop_fanout::max_value                1                       # Request fanout histogram
system.l2bus.snoop_fanout::total              1283535                       # Request fanout histogram
system.l2bus.reqLayer0.occupancy           2045519200                       # Layer occupancy (ticks)
system.l2bus.reqLayer0.utilization                3.7                       # Layer utilization (%)
system.l2bus.respLayer0.occupancy             1486800                       # Layer occupancy (ticks)
system.l2bus.respLayer0.utilization               0.0                       # Layer utilization (%)
system.l2bus.respLayer1.occupancy          1535612400                       # Layer occupancy (ticks)
system.l2bus.respLayer1.utilization               2.8                       # Layer utilization (%)
system.l2cache.tags.pwrStateResidencyTicks::UNDEFINED  54924928400                       # Cumulative time (in ticks) in various power states
system.l2cache.tags.replacements                 2618                       # number of replacements
system.l2cache.tags.tagsinuse            55464.713494                       # Cycle average of tags in use
system.l2cache.tags.total_refs                2494114                       # Total number of references to valid blocks.
system.l2cache.tags.sampled_refs                66086                       # Sample count of references to valid blocks.
system.l2cache.tags.avg_refs                37.740429                       # Average number of references to valid blocks.
system.l2cache.tags.warmup_cycle                    0                       # Cycle when the warmup percentage was hit.
system.l2cache.tags.occ_blocks::cpu.inst   650.256133                       # Average occupied blocks per requestor
system.l2cache.tags.occ_blocks::cpu.data 54814.457361                       # Average occupied blocks per requestor
system.l2cache.tags.occ_percent::cpu.inst     0.009922                       # Average percentage of cache occupancy
system.l2cache.tags.occ_percent::cpu.data     0.836402                       # Average percentage of cache occupancy
system.l2cache.tags.occ_percent::total       0.846324                       # Average percentage of cache occupancy
system.l2cache.tags.occ_task_id_blocks::1024        63468                       # Occupied blocks per task id
system.l2cache.tags.age_task_id_blocks_1024::0          113                       # Occupied blocks per task id
system.l2cache.tags.age_task_id_blocks_1024::1          232                       # Occupied blocks per task id
system.l2cache.tags.age_task_id_blocks_1024::4        63123                       # Occupied blocks per task id
system.l2cache.tags.occ_task_id_percent::1024     0.968445                       # Percentage of cache occupancy per task id
system.l2cache.tags.tag_accesses             20548478                       # Number of tag accesses
system.l2cache.tags.data_accesses            20548478                       # Number of data accesses
system.l2cache.pwrStateResidencyTicks::UNDEFINED  54924928400                       # Cumulative time (in ticks) in various power states
system.l2cache.WritebackDirty_hits::writebacks      1276747                       # number of WritebackDirty hits
system.l2cache.WritebackDirty_hits::total      1276747                       # number of WritebackDirty hits
system.l2cache.ReadExReq_hits::cpu.data       1151847                       # number of ReadExReq hits
system.l2cache.ReadExReq_hits::total          1151847                       # number of ReadExReq hits
system.l2cache.ReadSharedReq_hits::cpu.inst           85                       # number of ReadSharedReq hits
system.l2cache.ReadSharedReq_hits::cpu.data        62898                       # number of ReadSharedReq hits
system.l2cache.ReadSharedReq_hits::total        62983                       # number of ReadSharedReq hits
system.l2cache.demand_hits::cpu.inst               85                       # number of demand (read+write) hits
system.l2cache.demand_hits::cpu.data          1214745                       # number of demand (read+write) hits
system.l2cache.demand_hits::total             1214830                       # number of demand (read+write) hits
system.l2cache.overall_hits::cpu.inst              85                       # number of overall hits
system.l2cache.overall_hits::cpu.data         1214745                       # number of overall hits
system.l2cache.overall_hits::total            1214830                       # number of overall hits
system.l2cache.ReadExReq_misses::cpu.data        63004                       # number of ReadExReq misses
system.l2cache.ReadExReq_misses::total          63004                       # number of ReadExReq misses
system.l2cache.ReadSharedReq_misses::cpu.inst         1155                       # number of ReadSharedReq misses
system.l2cache.ReadSharedReq_misses::cpu.data         1928                       # number of ReadSharedReq misses
system.l2cache.ReadSharedReq_misses::total         3083                       # number of ReadSharedReq misses
system.l2cache.demand_misses::cpu.inst           1155                       # number of demand (read+write) misses
system.l2cache.demand_misses::cpu.data          64932                       # number of demand (read+write) misses
system.l2cache.demand_misses::total             66087                       # number of demand (read+write) misses
system.l2cache.overall_misses::cpu.inst          1155                       # number of overall misses
system.l2cache.overall_misses::cpu.data         64932                       # number of overall misses
system.l2cache.overall_misses::total            66087                       # number of overall misses
system.l2cache.ReadExReq_miss_latency::cpu.data   4308106400                       # number of ReadExReq miss cycles
system.l2cache.ReadExReq_miss_latency::total   4308106400                       # number of ReadExReq miss cycles
system.l2cache.ReadSharedReq_miss_latency::cpu.inst     80537600                       # number of ReadSharedReq miss cycles
system.l2cache.ReadSharedReq_miss_latency::cpu.data    134564400                       # number of ReadSharedReq miss cycles
system.l2cache.ReadSharedReq_miss_latency::total    215102000                       # number of ReadSharedReq miss cycles
system.l2cache.demand_miss_latency::cpu.inst     80537600                       # number of demand (read+write) miss cycles
system.l2cache.demand_miss_latency::cpu.data   4442670800                       # number of demand (read+write) miss cycles
system.l2cache.demand_miss_latency::total   4523208400                       # number of demand (read+write) miss cycles
system.l2cache.overall_miss_latency::cpu.inst     80537600                       # number of overall miss cycles
system.l2cache.overall_miss_latency::cpu.data   4442670800                       # number of overall miss cycles
system.l2cache.overall_miss_latency::total   4523208400                       # number of overall miss cycles
system.l2cache.WritebackDirty_accesses::writebacks      1276747                       # number of WritebackDirty accesses(hits+misses)
system.l2cache.WritebackDirty_accesses::total      1276747                       # number of WritebackDirty accesses(hits+misses)
system.l2cache.ReadExReq_accesses::cpu.data      1214851                       # number of ReadExReq accesses(hits+misses)
system.l2cache.ReadExReq_accesses::total      1214851                       # number of ReadExReq accesses(hits+misses)
system.l2cache.ReadSharedReq_accesses::cpu.inst         1240                       # number of ReadSharedReq accesses(hits+misses)
system.l2cache.ReadSharedReq_accesses::cpu.data        64826                       # number of ReadSharedReq accesses(hits+misses)
system.l2cache.ReadSharedReq_accesses::total        66066                       # number of ReadSharedReq accesses(hits+misses)
system.l2cache.demand_accesses::cpu.inst         1240                       # number of demand (read+write) accesses
system.l2cache.demand_accesses::cpu.data      1279677                       # number of demand (read+write) accesses
system.l2cache.demand_accesses::total         1280917                       # number of demand (read+write) accesses
system.l2cache.overall_accesses::cpu.inst         1240                       # number of overall (read+write) accesses
system.l2cache.overall_accesses::cpu.data      1279677                       # number of overall (read+write) accesses
system.l2cache.overall_accesses::total        1280917                       # number of overall (read+write) accesses
system.l2cache.ReadExReq_miss_rate::cpu.data     0.051862                       # miss rate for ReadExReq accesses
system.l2cache.ReadExReq_miss_rate::total     0.051862                       # miss rate for ReadExReq accesses
system.l2cache.ReadSharedReq_miss_rate::cpu.inst     0.931452                       # miss rate for ReadSharedReq accesses
system.l2cache.ReadSharedReq_miss_rate::cpu.data     0.029741                       # miss rate for ReadSharedReq accesses
system.l2cache.ReadSharedReq_miss_rate::total     0.046665                       # miss rate for ReadSharedReq accesses
system.l2cache.demand_miss_rate::cpu.inst     0.931452                       # miss rate for demand accesses
system.l2cache.demand_miss_rate::cpu.data     0.050741                       # miss rate for demand accesses
system.l2cache.demand_miss_rate::total       0.051594                       # miss rate for demand accesses
system.l2cache.overall_miss_rate::cpu.inst     0.931452                       # miss rate for overall accesses
system.l2cache.overall_miss_rate::cpu.data     0.050741                       # miss rate for overall accesses
system.l2cache.overall_miss_rate::total      0.051594                       # miss rate for overall accesses
system.l2cache.ReadExReq_avg_miss_latency::cpu.data 68378.299790                       # average ReadExReq miss latency
system.l2cache.ReadExReq_avg_miss_latency::total 68378.299790                       # average ReadExReq miss latency
system.l2cache.ReadSharedReq_avg_miss_latency::cpu.inst 69729.523810                       # average ReadSharedReq miss latency
system.l2cache.ReadSharedReq_avg_miss_latency::cpu.data 69794.813278                       # average ReadSharedReq miss latency
system.l2cache.ReadSharedReq_avg_miss_latency::total 69770.353552                       # average ReadSharedReq miss latency
system.l2cache.demand_avg_miss_latency::cpu.inst 69729.523810                       # average overall miss latency
system.l2cache.demand_avg_miss_latency::cpu.data 68420.359761                       # average overall miss latency
system.l2cache.demand_avg_miss_latency::total 68443.239972                       # average overall miss latency
system.l2cache.overall_avg_miss_latency::cpu.inst 69729.523810                       # average overall miss latency
system.l2cache.overall_avg_miss_latency::cpu.data 68420.359761                       # average overall miss latency
system.l2cache.overall_avg_miss_latency::total 68443.239972                       # average overall miss latency
system.l2cache.blocked_cycles::no_mshrs             0                       # number of cycles access was blocked
system.l2cache.blocked_cycles::no_targets            0                       # number of cycles access was blocked
system.l2cache.blocked::no_mshrs                    0                       # number of cycles access was blocked
system.l2cache.blocked::no_targets                  0                       # number of cycles access was blocked
system.l2cache.avg_blocked_cycles::no_mshrs          nan                       # average number of cycles each access was blocked
system.l2cache.avg_blocked_cycles::no_targets          nan                       # average number of cycles each access was blocked
system.l2cache.writebacks::writebacks             503                       # number of writebacks
system.l2cache.writebacks::total                  503                       # number of writebacks
system.l2cache.CleanEvict_mshr_misses::writebacks           98                       # number of CleanEvict MSHR misses
system.l2cache.CleanEvict_mshr_misses::total           98                       # number of CleanEvict MSHR misses
system.l2cache.ReadExReq_mshr_misses::cpu.data        63004                       # number of ReadExReq MSHR misses
system.l2cache.ReadExReq_mshr_misses::total        63004                       # number of ReadExReq MSHR misses
system.l2cache.ReadSharedReq_mshr_misses::cpu.inst         1155                       # number of ReadSharedReq MSHR misses
system.l2cache.ReadSharedReq_mshr_misses::cpu.data         1928                       # number of ReadSharedReq MSHR misses
system.l2cache.ReadSharedReq_mshr_misses::total         3083                       # number of ReadSharedReq MSHR misses
system.l2cache.demand_mshr_misses::cpu.inst         1155                       # number of demand (read+write) MSHR misses
system.l2cache.demand_mshr_misses::cpu.data        64932                       # number of demand (read+write) MSHR misses
system.l2cache.demand_mshr_misses::total        66087                       # number of demand (read+write) MSHR misses
system.l2cache.overall_mshr_misses::cpu.inst         1155                       # number of overall MSHR misses
system.l2cache.overall_mshr_misses::cpu.data        64932                       # number of overall MSHR misses
system.l2cache.overall_mshr_misses::total        66087                       # number of overall MSHR misses
system.l2cache.ReadExReq_mshr_miss_latency::cpu.data   3804074400                       # number of ReadExReq MSHR miss cycles
system.l2cache.ReadExReq_mshr_miss_latency::total   3804074400                       # number of ReadExReq MSHR miss cycles
system.l2cache.ReadSharedReq_mshr_miss_latency::cpu.inst     71305600                       # number of ReadSharedReq MSHR miss cycles
system.l2cache.ReadSharedReq_mshr_miss_latency::cpu.data    119140400                       # number of ReadSharedReq MSHR miss cycles
system.l2cache.ReadSharedReq_mshr_miss_latency::total    190446000                       # number of ReadSharedReq MSHR miss cycles
system.l2cache.demand_mshr_miss_latency::cpu.inst     71305600                       # number of demand (read+write) MSHR miss cycles
system.l2cache.demand_mshr_miss_latency::cpu.data   3923214800                       # number of demand (read+write) MSHR miss cycles
system.l2cache.demand_mshr_miss_latency::total   3994520400                       # number of demand (read+write) MSHR miss cycles
system.l2cache.overall_mshr_miss_latency::cpu.inst     71305600                       # number of overall MSHR miss cycles
system.l2cache.overall_mshr_miss_latency::cpu.data   3923214800                       # number of overall MSHR miss cycles
system.l2cache.overall_mshr_miss_latency::total   3994520400                       # number of overall MSHR miss cycles
system.l2cache.CleanEvict_mshr_miss_rate::writebacks          inf                       # mshr miss rate for CleanEvict accesses
system.l2cache.CleanEvict_mshr_miss_rate::total          inf                       # mshr miss rate for CleanEvict accesses
system.l2cache.ReadExReq_mshr_miss_rate::cpu.data     0.051862                       # mshr miss rate for ReadExReq accesses
system.l2cache.ReadExReq_mshr_miss_rate::total     0.051862                       # mshr miss rate for ReadExReq accesses
system.l2cache.ReadSharedReq_mshr_miss_rate::cpu.inst     0.931452                       # mshr miss rate for ReadSharedReq accesses
system.l2cache.ReadSharedReq_mshr_miss_rate::cpu.data     0.029741                       # mshr miss rate for ReadSharedReq accesses
system.l2cache.ReadSharedReq_mshr_miss_rate::total     0.046665                       # mshr miss rate for ReadSharedReq accesses
system.l2cache.demand_mshr_miss_rate::cpu.inst     0.931452                       # mshr miss rate for demand accesses
system.l2cache.demand_mshr_miss_rate::cpu.data     0.050741                       # mshr miss rate for demand accesses
system.l2cache.demand_mshr_miss_rate::total     0.051594                       # mshr miss rate for demand accesses
system.l2cache.overall_mshr_miss_rate::cpu.inst     0.931452                       # mshr miss rate for overall accesses
system.l2cache.overall_mshr_miss_rate::cpu.data     0.050741                       # mshr miss rate for overall accesses
system.l2cache.overall_mshr_miss_rate::total     0.051594                       # mshr miss rate for overall accesses
system.l2cache.ReadExReq_avg_mshr_miss_latency::cpu.data 60378.299790                       # average ReadExReq mshr miss latency
system.l2cache.ReadExReq_avg_mshr_miss_latency::total 60378.299790                       # average ReadExReq mshr miss latency
system.l2cache.ReadSharedReq_avg_mshr_miss_latency::cpu.inst 61736.450216                       # average ReadSharedReq mshr miss latency
system.l2cache.ReadSharedReq_avg_mshr_miss_latency::cpu.data 61794.813278                       # average ReadSharedReq mshr miss latency
system.l2cache.ReadSharedReq_avg_mshr_miss_latency::total 61772.948427                       # average ReadSharedReq mshr miss latency
system.l2cache.demand_avg_mshr_miss_latency::cpu.inst 61736.450216                       # average overall mshr miss latency
system.l2cache.demand_avg_mshr_miss_latency::cpu.data 60420.359761                       # average overall mshr miss latency
system.l2cache.demand_avg_mshr_miss_latency::total 60443.361024                       # average overall mshr miss latency
system.l2cache.overall_avg_mshr_miss_latency::cpu.inst 61736.450216                       # average overall mshr miss latency
system.l2cache.overall_avg_mshr_miss_latency::cpu.data 60420.359761                       # average overall mshr miss latency
system.l2cache.overall_avg_mshr_miss_latency::total 60443.361024                       # average overall mshr miss latency
system.membus.snoop_filter.tot_requests         68569                       # Total number of requests made to the snoop filter.
system.membus.snoop_filter.hit_single_requests         2483                       # Number of requests hitting in the snoop filter with a single holder of the requested data.
system.membus.snoop_filter.hit_multi_requests            0                       # Number of requests hitting in the snoop filter with multiple (>1) holders of the requested data.
system.membus.snoop_filter.tot_snoops               0                       # Total number of snoops made to the snoop filter.
system.membus.snoop_filter.hit_single_snoops            0                       # Number of snoops hitting in the snoop filter with a single holder of the requested data.
system.membus.snoop_filter.hit_multi_snoops            0                       # Number of snoops hitting in the snoop filter with multiple (>1) holders of the requested data.
system.membus.pwrStateResidencyTicks::UNDEFINED  54924928400                       # Cumulative time (in ticks) in various power states
system.membus.trans_dist::ReadResp               3082                       # Transaction distribution
system.membus.trans_dist::WritebackDirty          503                       # Transaction distribution
system.membus.trans_dist::CleanEvict             1980                       # Transaction distribution
system.membus.trans_dist::ReadExReq             63004                       # Transaction distribution
system.membus.trans_dist::ReadExResp            63004                       # Transaction distribution
system.membus.trans_dist::ReadSharedReq          3082                       # Transaction distribution
system.membus.pkt_count_system.l2cache.mem_side::system.mem_ctrl.port       134655                       # Packet count per connected master and slave (bytes)
system.membus.pkt_count_system.l2cache.mem_side::total       134655                       # Packet count per connected master and slave (bytes)
system.membus.pkt_count::total                 134655                       # Packet count per connected master and slave (bytes)
system.membus.pkt_size_system.l2cache.mem_side::system.mem_ctrl.port      4261696                       # Cumulative packet size per connected master and slave (bytes)
system.membus.pkt_size_system.l2cache.mem_side::total      4261696                       # Cumulative packet size per connected master and slave (bytes)
system.membus.pkt_size::total                 4261696                       # Cumulative packet size per connected master and slave (bytes)
system.membus.snoops                                0                       # Total snoops (count)
system.membus.snoopTraffic                          0                       # Total snoop traffic (bytes)
system.membus.snoop_fanout::samples             66086                       # Request fanout histogram
system.membus.snoop_fanout::mean                    0                       # Request fanout histogram
system.membus.snoop_fanout::stdev                   0                       # Request fanout histogram
system.membus.snoop_fanout::underflows              0      0.00%      0.00% # Request fanout histogram
system.membus.snoop_fanout::0                   66086    100.00%    100.00% # Request fanout histogram
system.membus.snoop_fanout::1                       0      0.00%    100.00% # Request fanout histogram
system.membus.snoop_fanout::overflows               0      0.00%    100.00% # Request fanout histogram
system.membus.snoop_fanout::min_value               0                       # Request fanout histogram
system.membus.snoop_fanout::max_value               0                       # Request fanout histogram
system.membus.snoop_fanout::total               66086                       # Request fanout histogram
system.membus.reqLayer2.occupancy            28232400                       # Layer occupancy (ticks)
system.membus.reqLayer2.utilization               0.1                       # Layer utilization (%)
system.membus.respLayer0.occupancy          154255174                       # Layer occupancy (ticks)
system.membus.respLayer0.utilization              0.3                       # Layer utilization (%)

---------- End Simulation Statistics   ----------
