
---------- Begin Simulation Statistics ----------
sim_seconds                                  0.077997                       # Number of seconds simulated
sim_ticks                                 77997430161                       # Number of ticks simulated
final_tick                                77997430161                       # Number of ticks from beginning of simulation (restored from checkpoints and never reset)
sim_freq                                 1000000000000                       # Frequency of simulated ticks
host_inst_rate                                1040731                       # Simulator instruction rate (inst/s)
host_op_rate                                  1790106                       # Simulator op (including micro ops) rate (op/s)
host_tick_rate                             1701758068                       # Simulator tick rate (ticks/s)
host_mem_usage                                 683788                       # Number of bytes of host memory used
host_seconds                                    45.83                       # Real time elapsed on the host
sim_insts                                    47700244                       # Number of instructions simulated
sim_ops                                      82046706                       # Number of ops (including micro ops) simulated
system.clk_domain.voltage_domain.voltage            1                       # Voltage in Volts
system.clk_domain.clock                           333                       # Clock period in ticks
system.mem_ctrl.pwrStateResidencyTicks::UNDEFINED  77997430161                       # Cumulative time (in ticks) in various power states
system.mem_ctrl.bytes_read::cpu.inst            54784                       # Number of bytes read from this memory
system.mem_ctrl.bytes_read::cpu.data          4155456                       # Number of bytes read from this memory
system.mem_ctrl.bytes_read::total             4210240                       # Number of bytes read from this memory
system.mem_ctrl.bytes_inst_read::cpu.inst        54784                       # Number of instructions bytes read from this memory
system.mem_ctrl.bytes_inst_read::total          54784                       # Number of instructions bytes read from this memory
system.mem_ctrl.bytes_written::writebacks        26944                       # Number of bytes written to this memory
system.mem_ctrl.bytes_written::total            26944                       # Number of bytes written to this memory
system.mem_ctrl.num_reads::cpu.inst               856                       # Number of read requests responded to by this memory
system.mem_ctrl.num_reads::cpu.data             64929                       # Number of read requests responded to by this memory
system.mem_ctrl.num_reads::total                65785                       # Number of read requests responded to by this memory
system.mem_ctrl.num_writes::writebacks            421                       # Number of write requests responded to by this memory
system.mem_ctrl.num_writes::total                 421                       # Number of write requests responded to by this memory
system.mem_ctrl.bw_read::cpu.inst              702382                       # Total read bandwidth from this memory (bytes/s)
system.mem_ctrl.bw_read::cpu.data            53276832                       # Total read bandwidth from this memory (bytes/s)
system.mem_ctrl.bw_read::total               53979214                       # Total read bandwidth from this memory (bytes/s)
system.mem_ctrl.bw_inst_read::cpu.inst         702382                       # Instruction read bandwidth from this memory (bytes/s)
system.mem_ctrl.bw_inst_read::total            702382                       # Instruction read bandwidth from this memory (bytes/s)
system.mem_ctrl.bw_write::writebacks           345447                       # Write bandwidth from this memory (bytes/s)
system.mem_ctrl.bw_write::total                345447                       # Write bandwidth from this memory (bytes/s)
system.mem_ctrl.bw_total::writebacks           345447                       # Total bandwidth to/from this memory (bytes/s)
system.mem_ctrl.bw_total::cpu.inst             702382                       # Total bandwidth to/from this memory (bytes/s)
system.mem_ctrl.bw_total::cpu.data           53276832                       # Total bandwidth to/from this memory (bytes/s)
system.mem_ctrl.bw_total::total              54324662                       # Total bandwidth to/from this memory (bytes/s)
system.mem_ctrl.readReqs                        65785                       # Number of read requests accepted
system.mem_ctrl.writeReqs                         421                       # Number of write requests accepted
system.mem_ctrl.readBursts                     131570                       # Number of DRAM read bursts, including those serviced by the write queue
system.mem_ctrl.writeBursts                       842                       # Number of DRAM write bursts, including those merged in the write queue
system.mem_ctrl.bytesReadDRAM                 4210240                       # Total number of bytes read from DRAM
system.mem_ctrl.bytesReadWrQ                        0                       # Total number of bytes read from write queue
system.mem_ctrl.bytesWritten                    26336                       # Total number of bytes written to DRAM
system.mem_ctrl.bytesReadSys                  4210240                       # Total read bytes from the system interface side
system.mem_ctrl.bytesWrittenSys                 26944                       # Total written bytes from the system interface side
system.mem_ctrl.servicedByWrQ                       0                       # Number of DRAM read bursts serviced by the write queue
system.mem_ctrl.mergedWrBursts                      0                       # Number of DRAM write bursts merged with an existing one
system.mem_ctrl.neitherReadNorWriteReqs             0                       # Number of requests that are neither read nor write
system.mem_ctrl.perBankRdBursts::0              16432                       # Per bank write bursts
system.mem_ctrl.perBankRdBursts::1              16470                       # Per bank write bursts
system.mem_ctrl.perBankRdBursts::2              16448                       # Per bank write bursts
system.mem_ctrl.perBankRdBursts::3              16434                       # Per bank write bursts
system.mem_ctrl.perBankRdBursts::4              16382                       # Per bank write bursts
system.mem_ctrl.perBankRdBursts::5              16514                       # Per bank write bursts
system.mem_ctrl.perBankRdBursts::6              16464                       # Per bank write bursts
system.mem_ctrl.perBankRdBursts::7              16426                       # Per bank write bursts
system.mem_ctrl.perBankWrBursts::0                 86                       # Per bank write bursts
system.mem_ctrl.perBankWrBursts::1                106                       # Per bank write bursts
system.mem_ctrl.perBankWrBursts::2                131                       # Per bank write bursts
system.mem_ctrl.perBankWrBursts::3                 84                       # Per bank write bursts
system.mem_ctrl.perBankWrBursts::4                 90                       # Per bank write bursts
system.mem_ctrl.perBankWrBursts::5                130                       # Per bank write bursts
system.mem_ctrl.perBankWrBursts::6                106                       # Per bank write bursts
system.mem_ctrl.perBankWrBursts::7                 90                       # Per bank write bursts
system.mem_ctrl.numRdRetry                          0                       # Number of times read queue was full causing retry
system.mem_ctrl.numWrRetry                          0                       # Number of times write queue was full causing retry
system.mem_ctrl.totGap                    77997352572                       # Total gap between requests
system.mem_ctrl.readPktSize::0                      0                       # Read request sizes (log2)
system.mem_ctrl.readPktSize::1                      0                       # Read request sizes (log2)
system.mem_ctrl.readPktSize::2                      0                       # Read request sizes (log2)
system.mem_ctrl.readPktSize::3                      0                       # Read request sizes (log2)
system.mem_ctrl.readPktSize::4                      0                       # Read request sizes (log2)
system.mem_ctrl.readPktSize::5                 131570                       # Read request sizes (log2)
system.mem_ctrl.writePktSize::0                     0                       # Write request sizes (log2)
system.mem_ctrl.writePktSize::1                     0                       # Write request sizes (log2)
system.mem_ctrl.writePktSize::2                     0                       # Write request sizes (log2)
system.mem_ctrl.writePktSize::3                     0                       # Write request sizes (log2)
system.mem_ctrl.writePktSize::4                     0                       # Write request sizes (log2)
system.mem_ctrl.writePktSize::5                   842                       # Write request sizes (log2)
system.mem_ctrl.rdQLenPdf::0                    65785                       # What read queue length does an incoming req see
system.mem_ctrl.rdQLenPdf::1                    65785                       # What read queue length does an incoming req see
system.mem_ctrl.rdQLenPdf::2                        0                       # What read queue length does an incoming req see
system.mem_ctrl.rdQLenPdf::3                        0                       # What read queue length does an incoming req see
system.mem_ctrl.rdQLenPdf::4                        0                       # What read queue length does an incoming req see
system.mem_ctrl.rdQLenPdf::5                        0                       # What read queue length does an incoming req see
system.mem_ctrl.rdQLenPdf::6                        0                       # What read queue length does an incoming req see
system.mem_ctrl.rdQLenPdf::7                        0                       # What read queue length does an incoming req see
system.mem_ctrl.rdQLenPdf::8                        0                       # What read queue length does an incoming req see
system.mem_ctrl.rdQLenPdf::9                        0                       # What read queue length does an incoming req see
system.mem_ctrl.rdQLenPdf::10                       0                       # What read queue length does an incoming req see
system.mem_ctrl.rdQLenPdf::11                       0                       # What read queue length does an incoming req see
system.mem_ctrl.rdQLenPdf::12                       0                       # What read queue length does an incoming req see
system.mem_ctrl.rdQLenPdf::13                       0                       # What read queue length does an incoming req see
system.mem_ctrl.rdQLenPdf::14                       0                       # What read queue length does an incoming req see
system.mem_ctrl.rdQLenPdf::15                       0                       # What read queue length does an incoming req see
system.mem_ctrl.rdQLenPdf::16                       0                       # What read queue length does an incoming req see
system.mem_ctrl.rdQLenPdf::17                       0                       # What read queue length does an incoming req see
system.mem_ctrl.rdQLenPdf::18                       0                       # What read queue length does an incoming req see
system.mem_ctrl.rdQLenPdf::19                       0                       # What read queue length does an incoming req see
system.mem_ctrl.rdQLenPdf::20                       0                       # What read queue length does an incoming req see
system.mem_ctrl.rdQLenPdf::21                       0                       # What read queue length does an incoming req see
system.mem_ctrl.rdQLenPdf::22                       0                       # What read queue length does an incoming req see
system.mem_ctrl.rdQLenPdf::23                       0                       # What read queue length does an incoming req see
system.mem_ctrl.rdQLenPdf::24                       0                       # What read queue length does an incoming req see
system.mem_ctrl.rdQLenPdf::25                       0                       # What read queue length does an incoming req see
system.mem_ctrl.rdQLenPdf::26                       0                       # What read queue length does an incoming req see
system.mem_ctrl.rdQLenPdf::27                       0                       # What read queue length does an incoming req see
system.mem_ctrl.rdQLenPdf::28                       0                       # What read queue length does an incoming req see
system.mem_ctrl.rdQLenPdf::29                       0                       # What read queue length does an incoming req see
system.mem_ctrl.rdQLenPdf::30                       0                       # What read queue length does an incoming req see
system.mem_ctrl.rdQLenPdf::31                       0                       # What read queue length does an incoming req see
system.mem_ctrl.wrQLenPdf::0                        1                       # What write queue length does an incoming req see
system.mem_ctrl.wrQLenPdf::1                        1                       # What write queue length does an incoming req see
system.mem_ctrl.wrQLenPdf::2                        1                       # What write queue length does an incoming req see
system.mem_ctrl.wrQLenPdf::3                        1                       # What write queue length does an incoming req see
system.mem_ctrl.wrQLenPdf::4                        1                       # What write queue length does an incoming req see
system.mem_ctrl.wrQLenPdf::5                        1                       # What write queue length does an incoming req see
system.mem_ctrl.wrQLenPdf::6                        1                       # What write queue length does an incoming req see
system.mem_ctrl.wrQLenPdf::7                        1                       # What write queue length does an incoming req see
system.mem_ctrl.wrQLenPdf::8                        1                       # What write queue length does an incoming req see
system.mem_ctrl.wrQLenPdf::9                        1                       # What write queue length does an incoming req see
system.mem_ctrl.wrQLenPdf::10                       1                       # What write queue length does an incoming req see
system.mem_ctrl.wrQLenPdf::11                       1                       # What write queue length does an incoming req see
system.mem_ctrl.wrQLenPdf::12                       1                       # What write queue length does an incoming req see
system.mem_ctrl.wrQLenPdf::13                       1                       # What write queue length does an incoming req see
system.mem_ctrl.wrQLenPdf::14                       1                       # What write queue length does an incoming req see
system.mem_ctrl.wrQLenPdf::15                      20                       # What write queue length does an incoming req see
system.mem_ctrl.wrQLenPdf::16                      20                       # What write queue length does an incoming req see
system.mem_ctrl.wrQLenPdf::17                      49                       # What write queue length does an incoming req see
system.mem_ctrl.wrQLenPdf::18                      49                       # What write queue length does an incoming req see
system.mem_ctrl.wrQLenPdf::19                      49                       # What write queue length does an incoming req see
system.mem_ctrl.wrQLenPdf::20                      49                       # What write queue length does an incoming req see
system.mem_ctrl.wrQLenPdf::21                      49                       # What write queue length does an incoming req see
system.mem_ctrl.wrQLenPdf::22                      49                       # What write queue length does an incoming req see
system.mem_ctrl.wrQLenPdf::23                      50                       # What write queue length does an incoming req see
system.mem_ctrl.wrQLenPdf::24                      50                       # What write queue length does an incoming req see
system.mem_ctrl.wrQLenPdf::25                      49                       # What write queue length does an incoming req see
system.mem_ctrl.wrQLenPdf::26                      49                       # What write queue length does an incoming req see
system.mem_ctrl.wrQLenPdf::27                      49                       # What write queue length does an incoming req see
system.mem_ctrl.wrQLenPdf::28                      49                       # What write queue length does an incoming req see
system.mem_ctrl.wrQLenPdf::29                      49                       # What write queue length does an incoming req see
system.mem_ctrl.wrQLenPdf::30                      49                       # What write queue length does an incoming req see
system.mem_ctrl.wrQLenPdf::31                      49                       # What write queue length does an incoming req see
system.mem_ctrl.wrQLenPdf::32                      49                       # What write queue length does an incoming req see
system.mem_ctrl.wrQLenPdf::33                       1                       # What write queue length does an incoming req see
system.mem_ctrl.wrQLenPdf::34                       0                       # What write queue length does an incoming req see
system.mem_ctrl.wrQLenPdf::35                       0                       # What write queue length does an incoming req see
system.mem_ctrl.wrQLenPdf::36                       0                       # What write queue length does an incoming req see
system.mem_ctrl.wrQLenPdf::37                       0                       # What write queue length does an incoming req see
system.mem_ctrl.wrQLenPdf::38                       0                       # What write queue length does an incoming req see
system.mem_ctrl.wrQLenPdf::39                       0                       # What write queue length does an incoming req see
system.mem_ctrl.wrQLenPdf::40                       0                       # What write queue length does an incoming req see
system.mem_ctrl.wrQLenPdf::41                       0                       # What write queue length does an incoming req see
system.mem_ctrl.wrQLenPdf::42                       0                       # What write queue length does an incoming req see
system.mem_ctrl.wrQLenPdf::43                       0                       # What write queue length does an incoming req see
system.mem_ctrl.wrQLenPdf::44                       0                       # What write queue length does an incoming req see
system.mem_ctrl.wrQLenPdf::45                       0                       # What write queue length does an incoming req see
system.mem_ctrl.wrQLenPdf::46                       0                       # What write queue length does an incoming req see
system.mem_ctrl.wrQLenPdf::47                       0                       # What write queue length does an incoming req see
system.mem_ctrl.wrQLenPdf::48                       0                       # What write queue length does an incoming req see
system.mem_ctrl.wrQLenPdf::49                       0                       # What write queue length does an incoming req see
system.mem_ctrl.wrQLenPdf::50                       0                       # What write queue length does an incoming req see
system.mem_ctrl.wrQLenPdf::51                       0                       # What write queue length does an incoming req see
system.mem_ctrl.wrQLenPdf::52                       0                       # What write queue length does an incoming req see
system.mem_ctrl.wrQLenPdf::53                       0                       # What write queue length does an incoming req see
system.mem_ctrl.wrQLenPdf::54                       0                       # What write queue length does an incoming req see
system.mem_ctrl.wrQLenPdf::55                       0                       # What write queue length does an incoming req see
system.mem_ctrl.wrQLenPdf::56                       0                       # What write queue length does an incoming req see
system.mem_ctrl.wrQLenPdf::57                       0                       # What write queue length does an incoming req see
system.mem_ctrl.wrQLenPdf::58                       0                       # What write queue length does an incoming req see
system.mem_ctrl.wrQLenPdf::59                       0                       # What write queue length does an incoming req see
system.mem_ctrl.wrQLenPdf::60                       0                       # What write queue length does an incoming req see
system.mem_ctrl.wrQLenPdf::61                       0                       # What write queue length does an incoming req see
system.mem_ctrl.wrQLenPdf::62                       0                       # What write queue length does an incoming req see
system.mem_ctrl.wrQLenPdf::63                       0                       # What write queue length does an incoming req see
system.mem_ctrl.bytesPerActivate::samples        13569                       # Bytes accessed per row activation
system.mem_ctrl.bytesPerActivate::mean     312.198688                       # Bytes accessed per row activation
system.mem_ctrl.bytesPerActivate::gmean    252.257141                       # Bytes accessed per row activation
system.mem_ctrl.bytesPerActivate::stdev    168.649137                       # Bytes accessed per row activation
system.mem_ctrl.bytesPerActivate::0-63             26      0.19%      0.19% # Bytes accessed per row activation
system.mem_ctrl.bytesPerActivate::64-127         1982     14.61%     14.80% # Bytes accessed per row activation
system.mem_ctrl.bytesPerActivate::128-191         1442     10.63%     25.43% # Bytes accessed per row activation
system.mem_ctrl.bytesPerActivate::192-255         1365     10.06%     35.49% # Bytes accessed per row activation
system.mem_ctrl.bytesPerActivate::256-319         1525     11.24%     46.72% # Bytes accessed per row activation
system.mem_ctrl.bytesPerActivate::320-383         1596     11.76%     58.49% # Bytes accessed per row activation
system.mem_ctrl.bytesPerActivate::384-447          648      4.78%     63.26% # Bytes accessed per row activation
system.mem_ctrl.bytesPerActivate::448-511          651      4.80%     68.06% # Bytes accessed per row activation
system.mem_ctrl.bytesPerActivate::512-575         4334     31.94%    100.00% # Bytes accessed per row activation
system.mem_ctrl.bytesPerActivate::total         13569                       # Bytes accessed per row activation
system.mem_ctrl.rdPerTurnAround::samples           49                       # Reads before turning the bus around for writes
system.mem_ctrl.rdPerTurnAround::mean     2684.979592                       # Reads before turning the bus around for writes
system.mem_ctrl.rdPerTurnAround::gmean      35.046191                       # Reads before turning the bus around for writes
system.mem_ctrl.rdPerTurnAround::stdev   17055.016281                       # Reads before turning the bus around for writes
system.mem_ctrl.rdPerTurnAround::0-4095            47     95.92%     95.92% # Reads before turning the bus around for writes
system.mem_ctrl.rdPerTurnAround::4096-8191            1      2.04%     97.96% # Reads before turning the bus around for writes
system.mem_ctrl.rdPerTurnAround::118784-122879            1      2.04%    100.00% # Reads before turning the bus around for writes
system.mem_ctrl.rdPerTurnAround::total             49                       # Reads before turning the bus around for writes
system.mem_ctrl.wrPerTurnAround::samples           49                       # Writes before turning the bus around for reads
system.mem_ctrl.wrPerTurnAround::mean       16.795918                       # Writes before turning the bus around for reads
system.mem_ctrl.wrPerTurnAround::gmean      16.766169                       # Writes before turning the bus around for reads
system.mem_ctrl.wrPerTurnAround::stdev       1.020204                       # Writes before turning the bus around for reads
system.mem_ctrl.wrPerTurnAround::16                30     61.22%     61.22% # Writes before turning the bus around for reads
system.mem_ctrl.wrPerTurnAround::18                18     36.73%     97.96% # Writes before turning the bus around for reads
system.mem_ctrl.wrPerTurnAround::19                 1      2.04%    100.00% # Writes before turning the bus around for reads
system.mem_ctrl.wrPerTurnAround::total             49                       # Writes before turning the bus around for reads
system.mem_ctrl.totQLat                    2229040636                       # Total ticks spent queuing
system.mem_ctrl.totMemAccLat               5189365636                       # Total ticks spent from burst creation until serviced by the DRAM
system.mem_ctrl.totBusLat                   986775000                       # Total ticks spent in databus transfers
system.mem_ctrl.avgQLat                      16941.86                       # Average queueing delay per DRAM burst
system.mem_ctrl.avgBusLat                     7500.00                       # Average bus latency per DRAM burst
system.mem_ctrl.avgMemAccLat                 39441.86                       # Average memory access latency per DRAM burst
system.mem_ctrl.avgRdBW                         53.98                       # Average DRAM read bandwidth in MiByte/s
system.mem_ctrl.avgWrBW                          0.34                       # Average achieved write bandwidth in MiByte/s
system.mem_ctrl.avgRdBWSys                      53.98                       # Average system read bandwidth in MiByte/s
system.mem_ctrl.avgWrBWSys                       0.35                       # Average system write bandwidth in MiByte/s
system.mem_ctrl.peakBW                        4266.00                       # Theoretical peak bandwidth in MiByte/s
system.mem_ctrl.busUtil                          1.27                       # Data bus utilization in percentage
system.mem_ctrl.busUtilRead                      1.27                       # Data bus utilization in percentage for reads
system.mem_ctrl.busUtilWrite                     0.01                       # Data bus utilization in percentage for writes
system.mem_ctrl.avgRdQLen                        2.00                       # Average read queue length when enqueuing
system.mem_ctrl.avgWrQLen                       14.74                       # Average write queue length when enqueuing
system.mem_ctrl.readRowHits                    118156                       # Number of row buffer hits during reads
system.mem_ctrl.writeRowHits                      663                       # Number of row buffer hits during writes
system.mem_ctrl.readRowHitRate                  89.80                       # Row buffer hit rate for reads
system.mem_ctrl.writeRowHitRate                 78.74                       # Row buffer hit rate for writes
system.mem_ctrl.avgGap                     1178100.97                       # Average gap between requests
system.mem_ctrl.pageHitRate                     89.73                       # Row buffer hit rate, read and write combined
system.mem_ctrl_0.actEnergy              41291212.116000                       # Energy for activate commands per rank (pJ)
system.mem_ctrl_0.preEnergy              14540149.612800                       # Energy for precharge commands per rank (pJ)
system.mem_ctrl_0.readEnergy             225993262.992000                       # Energy for read commands per rank (pJ)
system.mem_ctrl_0.writeEnergy            1269125.256000                       # Energy for write commands per rank (pJ)
system.mem_ctrl_0.refreshEnergy          139454157.780000                       # Energy for refresh commands per rank (pJ)
system.mem_ctrl_0.actBackEnergy          142088965.074000                       # Energy for active background per rank (pJ)
system.mem_ctrl_0.preBackEnergy          9642270.052800                       # Energy for precharge background per rank (pJ)
system.mem_ctrl_0.actPowerDownEnergy     172904124.227520                       # Energy for active power-down per rank (pJ)
system.mem_ctrl_0.prePowerDownEnergy     2137401.840000                       # Energy for precharge power-down per rank (pJ)
system.mem_ctrl_0.selfRefreshEnergy      329966389.492320                       # Energy for self refresh per rank (pJ)
system.mem_ctrl_0.totalEnergy            1079287058.443440                       # Total energy per rank (pJ)
system.mem_ctrl_0.averagePower              13.837469                       # Core power per rank (mW)
system.mem_ctrl_0.totalIdleTime           74245631478                       # Total Idle time Per DRAM Rank
system.mem_ctrl_0.memoryStateTime::IDLE      57670159                       # Time in different power states
system.mem_ctrl_0.memoryStateTime::REF      652745000                       # Time in different power states
system.mem_ctrl_0.memoryStateTime::SREF   58495090385                       # Time in different power states
system.mem_ctrl_0.memoryStateTime::PRE_PDN   1047748608                       # Time in different power states
system.mem_ctrl_0.memoryStateTime::ACT     3041351094                       # Time in different power states
system.mem_ctrl_0.memoryStateTime::ACT_PDN  14702824915                       # Time in different power states
system.pwrStateResidencyTicks::UNDEFINED  77997430161                       # Cumulative time (in ticks) in various power states
system.cpu.dtb.walker.pwrStateResidencyTicks::UNDEFINED  77997430161                       # Cumulative time (in ticks) in various power states
system.cpu.dtb.rdAccesses                    23854000                       # TLB accesses on read requests
system.cpu.dtb.wrAccesses                     7334621                       # TLB accesses on write requests
system.cpu.dtb.rdMisses                          1229                       # TLB misses on read requests
system.cpu.dtb.wrMisses                        116843                       # TLB misses on write requests
system.cpu.apic_clk_domain.clock                 5328                       # Clock period in ticks
system.cpu.interrupts.pwrStateResidencyTicks::UNDEFINED  77997430161                       # Cumulative time (in ticks) in various power states
system.cpu.itb.walker.pwrStateResidencyTicks::UNDEFINED  77997430161                       # Cumulative time (in ticks) in various power states
system.cpu.itb.rdAccesses                           0                       # TLB accesses on read requests
system.cpu.itb.wrAccesses                    63318174                       # TLB accesses on write requests
system.cpu.itb.rdMisses                             0                       # TLB misses on read requests
system.cpu.itb.wrMisses                            89                       # TLB misses on write requests
system.cpu.workload.numSyscalls                    33                       # Number of system calls
system.cpu.pwrStateResidencyTicks::ON     77997430161                       # Cumulative time (in ticks) in various power states
system.cpu.numCycles                        234226517                       # number of cpu cycles simulated
system.cpu.numWorkItemsStarted                      0                       # number of work items this cpu started
system.cpu.numWorkItemsCompleted                    0                       # number of work items this cpu completed
system.cpu.committedInsts                    47700244                       # Number of instructions committed
system.cpu.committedOps                      82046706                       # Number of ops (including micro ops) committed
system.cpu.num_int_alu_accesses              82043407                       # Number of integer alu accesses
system.cpu.num_fp_alu_accesses                   3447                       # Number of float alu accesses
system.cpu.num_vec_alu_accesses                     0                       # Number of vector alu accesses
system.cpu.num_func_calls                        1358                       # number of times a function call or return occured
system.cpu.num_conditional_control_insts      5151277                       # number of instructions that are conditional controls
system.cpu.num_int_insts                     82043407                       # number of integer instructions
system.cpu.num_fp_insts                          3447                       # number of float instructions
system.cpu.num_vec_insts                            0                       # number of vector instructions
system.cpu.num_int_register_reads           173517092                       # number of times the integer registers were read
system.cpu.num_int_register_writes           69557594                       # number of times the integer registers were written
system.cpu.num_fp_register_reads                 5525                       # number of times the floating registers were read
system.cpu.num_fp_register_writes                2660                       # number of times the floating registers were written
system.cpu.num_vec_register_reads                   0                       # number of times the vector registers were read
system.cpu.num_vec_register_writes                  0                       # number of times the vector registers were written
system.cpu.num_cc_register_reads             26790677                       # number of times the CC registers were read
system.cpu.num_cc_register_writes            31250784                       # number of times the CC registers were written
system.cpu.num_mem_refs                      31188612                       # number of memory refs
system.cpu.num_load_insts                    23853991                       # Number of load instructions
system.cpu.num_store_insts                    7334621                       # Number of store instructions
system.cpu.num_idle_cycles                          0                       # Number of idle cycles
system.cpu.num_busy_cycles                  234226517                       # Number of busy cycles
system.cpu.not_idle_fraction                        1                       # Percentage of non-idle cycles
system.cpu.idle_fraction                            0                       # Percentage of idle cycles
system.cpu.Branches                           5154587                       # Number of branches fetched
system.cpu.op_class::No_OpClass                  1287      0.00%      0.00% # Class of executed instruction
system.cpu.op_class::IntAlu                  50852257     61.98%     61.98% # Class of executed instruction
system.cpu.op_class::IntMult                     1192      0.00%     61.98% # Class of executed instruction
system.cpu.op_class::IntDiv                      1131      0.00%     61.98% # Class of executed instruction
system.cpu.op_class::FloatAdd                    2227      0.00%     61.99% # Class of executed instruction
system.cpu.op_class::FloatCmp                       0      0.00%     61.99% # Class of executed instruction
system.cpu.op_class::FloatCvt                       0      0.00%     61.99% # Class of executed instruction
system.cpu.op_class::FloatMult                      0      0.00%     61.99% # Class of executed instruction
system.cpu.op_class::FloatMultAcc                   0      0.00%     61.99% # Class of executed instruction
system.cpu.op_class::FloatDiv                       0      0.00%     61.99% # Class of executed instruction
system.cpu.op_class::FloatMisc                      0      0.00%     61.99% # Class of executed instruction
system.cpu.op_class::FloatSqrt                      0      0.00%     61.99% # Class of executed instruction
system.cpu.op_class::SimdAdd                        0      0.00%     61.99% # Class of executed instruction
system.cpu.op_class::SimdAddAcc                     0      0.00%     61.99% # Class of executed instruction
system.cpu.op_class::SimdAlu                        0      0.00%     61.99% # Class of executed instruction
system.cpu.op_class::SimdCmp                        0      0.00%     61.99% # Class of executed instruction
system.cpu.op_class::SimdCvt                        0      0.00%     61.99% # Class of executed instruction
system.cpu.op_class::SimdMisc                       0      0.00%     61.99% # Class of executed instruction
system.cpu.op_class::SimdMult                       0      0.00%     61.99% # Class of executed instruction
system.cpu.op_class::SimdMultAcc                    0      0.00%     61.99% # Class of executed instruction
system.cpu.op_class::SimdShift                      0      0.00%     61.99% # Class of executed instruction
system.cpu.op_class::SimdShiftAcc                   0      0.00%     61.99% # Class of executed instruction
system.cpu.op_class::SimdSqrt                       0      0.00%     61.99% # Class of executed instruction
system.cpu.op_class::SimdFloatAdd                   0      0.00%     61.99% # Class of executed instruction
system.cpu.op_class::SimdFloatAlu                   0      0.00%     61.99% # Class of executed instruction
system.cpu.op_class::SimdFloatCmp                   0      0.00%     61.99% # Class of executed instruction
system.cpu.op_class::SimdFloatCvt                   0      0.00%     61.99% # Class of executed instruction
system.cpu.op_class::SimdFloatDiv                   0      0.00%     61.99% # Class of executed instruction
system.cpu.op_class::SimdFloatMisc                  0      0.00%     61.99% # Class of executed instruction
system.cpu.op_class::SimdFloatMult                  0      0.00%     61.99% # Class of executed instruction
system.cpu.op_class::SimdFloatMultAcc               0      0.00%     61.99% # Class of executed instruction
system.cpu.op_class::SimdFloatSqrt                  0      0.00%     61.99% # Class of executed instruction
system.cpu.op_class::MemRead                 23853209     29.07%     91.06% # Class of executed instruction
system.cpu.op_class::MemWrite                 7334237      8.94%    100.00% # Class of executed instruction
system.cpu.op_class::FloatMemRead                 782      0.00%    100.00% # Class of executed instruction
system.cpu.op_class::FloatMemWrite                384      0.00%    100.00% # Class of executed instruction
system.cpu.op_class::IprAccess                      0      0.00%    100.00% # Class of executed instruction
system.cpu.op_class::InstPrefetch                   0      0.00%    100.00% # Class of executed instruction
system.cpu.op_class::total                   82046706                       # Class of executed instruction
system.cpu.dcache.tags.pwrStateResidencyTicks::UNDEFINED  77997430161                       # Cumulative time (in ticks) in various power states
system.cpu.dcache.tags.replacements           1278644                       # number of replacements
system.cpu.dcache.tags.tagsinuse          1022.494242                       # Cycle average of tags in use
system.cpu.dcache.tags.total_refs            29908953                       # Total number of references to valid blocks.
system.cpu.dcache.tags.sampled_refs           1279668                       # Sample count of references to valid blocks.
system.cpu.dcache.tags.avg_refs             23.372432                       # Average number of references to valid blocks.
system.cpu.dcache.tags.warmup_cycle         337428567                       # Cycle when the warmup percentage was hit.
system.cpu.dcache.tags.occ_blocks::cpu.data  1022.494242                       # Average occupied blocks per requestor
system.cpu.dcache.tags.occ_percent::cpu.data     0.998530                       # Average percentage of cache occupancy
system.cpu.dcache.tags.occ_percent::total     0.998530                       # Average percentage of cache occupancy
system.cpu.dcache.tags.occ_task_id_blocks::1024         1024                       # Occupied blocks per task id
system.cpu.dcache.tags.age_task_id_blocks_1024::0           36                       # Occupied blocks per task id
system.cpu.dcache.tags.age_task_id_blocks_1024::1          366                       # Occupied blocks per task id
system.cpu.dcache.tags.age_task_id_blocks_1024::2          620                       # Occupied blocks per task id
system.cpu.dcache.tags.age_task_id_blocks_1024::4            2                       # Occupied blocks per task id
system.cpu.dcache.tags.occ_task_id_percent::1024            1                       # Percentage of cache occupancy per task id
system.cpu.dcache.tags.tag_accesses          63656910                       # Number of tag accesses
system.cpu.dcache.tags.data_accesses         63656910                       # Number of data accesses
system.cpu.dcache.pwrStateResidencyTicks::UNDEFINED  77997430161                       # Cumulative time (in ticks) in various power states
system.cpu.dcache.ReadReq_hits::cpu.data     23789186                       # number of ReadReq hits
system.cpu.dcache.ReadReq_hits::total        23789186                       # number of ReadReq hits
system.cpu.dcache.WriteReq_hits::cpu.data      6119767                       # number of WriteReq hits
system.cpu.dcache.WriteReq_hits::total        6119767                       # number of WriteReq hits
system.cpu.dcache.demand_hits::cpu.data      29908953                       # number of demand (read+write) hits
system.cpu.dcache.demand_hits::total         29908953                       # number of demand (read+write) hits
system.cpu.dcache.overall_hits::cpu.data     29908953                       # number of overall hits
system.cpu.dcache.overall_hits::total        29908953                       # number of overall hits
system.cpu.dcache.ReadReq_misses::cpu.data        64814                       # number of ReadReq misses
system.cpu.dcache.ReadReq_misses::total         64814                       # number of ReadReq misses
system.cpu.dcache.WriteReq_misses::cpu.data      1214854                       # number of WriteReq misses
system.cpu.dcache.WriteReq_misses::total      1214854                       # number of WriteReq misses
system.cpu.dcache.demand_misses::cpu.data      1279668                       # number of demand (read+write) misses
system.cpu.dcache.demand_misses::total        1279668                       # number of demand (read+write) misses
system.cpu.dcache.overall_misses::cpu.data      1279668                       # number of overall misses
system.cpu.dcache.overall_misses::total       1279668                       # number of overall misses
system.cpu.dcache.ReadReq_miss_latency::cpu.data    714008610                       # number of ReadReq miss cycles
system.cpu.dcache.ReadReq_miss_latency::total    714008610                       # number of ReadReq miss cycles
system.cpu.dcache.WriteReq_miss_latency::cpu.data  15117538329                       # number of WriteReq miss cycles
system.cpu.dcache.WriteReq_miss_latency::total  15117538329                       # number of WriteReq miss cycles
system.cpu.dcache.demand_miss_latency::cpu.data  15831546939                       # number of demand (read+write) miss cycles
system.cpu.dcache.demand_miss_latency::total  15831546939                       # number of demand (read+write) miss cycles
system.cpu.dcache.overall_miss_latency::cpu.data  15831546939                       # number of overall miss cycles
system.cpu.dcache.overall_miss_latency::total  15831546939                       # number of overall miss cycles
system.cpu.dcache.ReadReq_accesses::cpu.data     23854000                       # number of ReadReq accesses(hits+misses)
system.cpu.dcache.ReadReq_accesses::total     23854000                       # number of ReadReq accesses(hits+misses)
system.cpu.dcache.WriteReq_accesses::cpu.data      7334621                       # number of WriteReq accesses(hits+misses)
system.cpu.dcache.WriteReq_accesses::total      7334621                       # number of WriteReq accesses(hits+misses)
system.cpu.dcache.demand_accesses::cpu.data     31188621                       # number of demand (read+write) accesses
system.cpu.dcache.demand_accesses::total     31188621                       # number of demand (read+write) accesses
system.cpu.dcache.overall_accesses::cpu.data     31188621                       # number of overall (read+write) accesses
system.cpu.dcache.overall_accesses::total     31188621                       # number of overall (read+write) accesses
system.cpu.dcache.ReadReq_miss_rate::cpu.data     0.002717                       # miss rate for ReadReq accesses
system.cpu.dcache.ReadReq_miss_rate::total     0.002717                       # miss rate for ReadReq accesses
system.cpu.dcache.WriteReq_miss_rate::cpu.data     0.165633                       # miss rate for WriteReq accesses
system.cpu.dcache.WriteReq_miss_rate::total     0.165633                       # miss rate for WriteReq accesses
system.cpu.dcache.demand_miss_rate::cpu.data     0.041030                       # miss rate for demand accesses
system.cpu.dcache.demand_miss_rate::total     0.041030                       # miss rate for demand accesses
system.cpu.dcache.overall_miss_rate::cpu.data     0.041030                       # miss rate for overall accesses
system.cpu.dcache.overall_miss_rate::total     0.041030                       # miss rate for overall accesses
system.cpu.dcache.ReadReq_avg_miss_latency::cpu.data 11016.271330                       # average ReadReq miss latency
system.cpu.dcache.ReadReq_avg_miss_latency::total 11016.271330                       # average ReadReq miss latency
system.cpu.dcache.WriteReq_avg_miss_latency::cpu.data 12443.913696                       # average WriteReq miss latency
system.cpu.dcache.WriteReq_avg_miss_latency::total 12443.913696                       # average WriteReq miss latency
system.cpu.dcache.demand_avg_miss_latency::cpu.data 12371.604931                       # average overall miss latency
system.cpu.dcache.demand_avg_miss_latency::total 12371.604931                       # average overall miss latency
system.cpu.dcache.overall_avg_miss_latency::cpu.data 12371.604931                       # average overall miss latency
system.cpu.dcache.overall_avg_miss_latency::total 12371.604931                       # average overall miss latency
system.cpu.dcache.blocked_cycles::no_mshrs            0                       # number of cycles access was blocked
system.cpu.dcache.blocked_cycles::no_targets            0                       # number of cycles access was blocked
system.cpu.dcache.blocked::no_mshrs                 0                       # number of cycles access was blocked
system.cpu.dcache.blocked::no_targets               0                       # number of cycles access was blocked
system.cpu.dcache.avg_blocked_cycles::no_mshrs          nan                       # average number of cycles each access was blocked
system.cpu.dcache.avg_blocked_cycles::no_targets          nan                       # average number of cycles each access was blocked
system.cpu.dcache.writebacks::writebacks      1276746                       # number of writebacks
system.cpu.dcache.writebacks::total           1276746                       # number of writebacks
system.cpu.dcache.ReadReq_mshr_misses::cpu.data        64814                       # number of ReadReq MSHR misses
system.cpu.dcache.ReadReq_mshr_misses::total        64814                       # number of ReadReq MSHR misses
system.cpu.dcache.WriteReq_mshr_misses::cpu.data      1214854                       # number of WriteReq MSHR misses
system.cpu.dcache.WriteReq_mshr_misses::total      1214854                       # number of WriteReq MSHR misses
system.cpu.dcache.demand_mshr_misses::cpu.data      1279668                       # number of demand (read+write) MSHR misses
system.cpu.dcache.demand_mshr_misses::total      1279668                       # number of demand (read+write) MSHR misses
system.cpu.dcache.overall_mshr_misses::cpu.data      1279668                       # number of overall MSHR misses
system.cpu.dcache.overall_mshr_misses::total      1279668                       # number of overall MSHR misses
system.cpu.dcache.ReadReq_mshr_miss_latency::cpu.data    670842486                       # number of ReadReq MSHR miss cycles
system.cpu.dcache.ReadReq_mshr_miss_latency::total    670842486                       # number of ReadReq MSHR miss cycles
system.cpu.dcache.WriteReq_mshr_miss_latency::cpu.data  14308445565                       # number of WriteReq MSHR miss cycles
system.cpu.dcache.WriteReq_mshr_miss_latency::total  14308445565                       # number of WriteReq MSHR miss cycles
system.cpu.dcache.demand_mshr_miss_latency::cpu.data  14979288051                       # number of demand (read+write) MSHR miss cycles
system.cpu.dcache.demand_mshr_miss_latency::total  14979288051                       # number of demand (read+write) MSHR miss cycles
system.cpu.dcache.overall_mshr_miss_latency::cpu.data  14979288051                       # number of overall MSHR miss cycles
system.cpu.dcache.overall_mshr_miss_latency::total  14979288051                       # number of overall MSHR miss cycles
system.cpu.dcache.ReadReq_mshr_miss_rate::cpu.data     0.002717                       # mshr miss rate for ReadReq accesses
system.cpu.dcache.ReadReq_mshr_miss_rate::total     0.002717                       # mshr miss rate for ReadReq accesses
system.cpu.dcache.WriteReq_mshr_miss_rate::cpu.data     0.165633                       # mshr miss rate for WriteReq accesses
system.cpu.dcache.WriteReq_mshr_miss_rate::total     0.165633                       # mshr miss rate for WriteReq accesses
system.cpu.dcache.demand_mshr_miss_rate::cpu.data     0.041030                       # mshr miss rate for demand accesses
system.cpu.dcache.demand_mshr_miss_rate::total     0.041030                       # mshr miss rate for demand accesses
system.cpu.dcache.overall_mshr_miss_rate::cpu.data     0.041030                       # mshr miss rate for overall accesses
system.cpu.dcache.overall_mshr_miss_rate::total     0.041030                       # mshr miss rate for overall accesses
system.cpu.dcache.ReadReq_avg_mshr_miss_latency::cpu.data 10350.271330                       # average ReadReq mshr miss latency
system.cpu.dcache.ReadReq_avg_mshr_miss_latency::total 10350.271330                       # average ReadReq mshr miss latency
system.cpu.dcache.WriteReq_avg_mshr_miss_latency::cpu.data 11777.913696                       # average WriteReq mshr miss latency
system.cpu.dcache.WriteReq_avg_mshr_miss_latency::total 11777.913696                       # average WriteReq mshr miss latency
system.cpu.dcache.demand_avg_mshr_miss_latency::cpu.data 11705.604931                       # average overall mshr miss latency
system.cpu.dcache.demand_avg_mshr_miss_latency::total 11705.604931                       # average overall mshr miss latency
system.cpu.dcache.overall_avg_mshr_miss_latency::cpu.data 11705.604931                       # average overall mshr miss latency
system.cpu.dcache.overall_avg_mshr_miss_latency::total 11705.604931                       # average overall mshr miss latency
system.cpu.icache.tags.pwrStateResidencyTicks::UNDEFINED  77997430161                       # Cumulative time (in ticks) in various power states
system.cpu.icache.tags.replacements               407                       # number of replacements
system.cpu.icache.tags.tagsinuse           455.340703                       # Cycle average of tags in use
system.cpu.icache.tags.total_refs            63317292                       # Total number of references to valid blocks.
system.cpu.icache.tags.sampled_refs               882                       # Sample count of references to valid blocks.
system.cpu.icache.tags.avg_refs          71788.312925                       # Average number of references to valid blocks.
system.cpu.icache.tags.warmup_cycle                 0                       # Cycle when the warmup percentage was hit.
system.cpu.icache.tags.occ_blocks::cpu.inst   455.340703                       # Average occupied blocks per requestor
system.cpu.icache.tags.occ_percent::cpu.inst     0.889337                       # Average percentage of cache occupancy
system.cpu.icache.tags.occ_percent::total     0.889337                       # Average percentage of cache occupancy
system.cpu.icache.tags.occ_task_id_blocks::1024          475                       # Occupied blocks per task id
system.cpu.icache.tags.age_task_id_blocks_1024::0           65                       # Occupied blocks per task id
system.cpu.icache.tags.age_task_id_blocks_1024::1          101                       # Occupied blocks per task id
system.cpu.icache.tags.age_task_id_blocks_1024::4          309                       # Occupied blocks per task id
system.cpu.icache.tags.occ_task_id_percent::1024     0.927734                       # Percentage of cache occupancy per task id
system.cpu.icache.tags.tag_accesses         126637230                       # Number of tag accesses
system.cpu.icache.tags.data_accesses        126637230                       # Number of data accesses
system.cpu.icache.pwrStateResidencyTicks::UNDEFINED  77997430161                       # Cumulative time (in ticks) in various power states
system.cpu.icache.ReadReq_hits::cpu.inst     63317292                       # number of ReadReq hits
system.cpu.icache.ReadReq_hits::total        63317292                       # number of ReadReq hits
system.cpu.icache.demand_hits::cpu.inst      63317292                       # number of demand (read+write) hits
system.cpu.icache.demand_hits::total         63317292                       # number of demand (read+write) hits
system.cpu.icache.overall_hits::cpu.inst     63317292                       # number of overall hits
system.cpu.icache.overall_hits::total        63317292                       # number of overall hits
system.cpu.icache.ReadReq_misses::cpu.inst          882                       # number of ReadReq misses
system.cpu.icache.ReadReq_misses::total           882                       # number of ReadReq misses
system.cpu.icache.demand_misses::cpu.inst          882                       # number of demand (read+write) misses
system.cpu.icache.demand_misses::total            882                       # number of demand (read+write) misses
system.cpu.icache.overall_misses::cpu.inst          882                       # number of overall misses
system.cpu.icache.overall_misses::total           882                       # number of overall misses
system.cpu.icache.ReadReq_miss_latency::cpu.inst     77217039                       # number of ReadReq miss cycles
system.cpu.icache.ReadReq_miss_latency::total     77217039                       # number of ReadReq miss cycles
system.cpu.icache.demand_miss_latency::cpu.inst     77217039                       # number of demand (read+write) miss cycles
system.cpu.icache.demand_miss_latency::total     77217039                       # number of demand (read+write) miss cycles
system.cpu.icache.overall_miss_latency::cpu.inst     77217039                       # number of overall miss cycles
system.cpu.icache.overall_miss_latency::total     77217039                       # number of overall miss cycles
system.cpu.icache.ReadReq_accesses::cpu.inst     63318174                       # number of ReadReq accesses(hits+misses)
system.cpu.icache.ReadReq_accesses::total     63318174                       # number of ReadReq accesses(hits+misses)
system.cpu.icache.demand_accesses::cpu.inst     63318174                       # number of demand (read+write) accesses
system.cpu.icache.demand_accesses::total     63318174                       # number of demand (read+write) accesses
system.cpu.icache.overall_accesses::cpu.inst     63318174                       # number of overall (read+write) accesses
system.cpu.icache.overall_accesses::total     63318174                       # number of overall (read+write) accesses
system.cpu.icache.ReadReq_miss_rate::cpu.inst     0.000014                       # miss rate for ReadReq accesses
system.cpu.icache.ReadReq_miss_rate::total     0.000014                       # miss rate for ReadReq accesses
system.cpu.icache.demand_miss_rate::cpu.inst     0.000014                       # miss rate for demand accesses
system.cpu.icache.demand_miss_rate::total     0.000014                       # miss rate for demand accesses
system.cpu.icache.overall_miss_rate::cpu.inst     0.000014                       # miss rate for overall accesses
system.cpu.icache.overall_miss_rate::total     0.000014                       # miss rate for overall accesses
system.cpu.icache.ReadReq_avg_miss_latency::cpu.inst 87547.663265                       # average ReadReq miss latency
system.cpu.icache.ReadReq_avg_miss_latency::total 87547.663265                       # average ReadReq miss latency
system.cpu.icache.demand_avg_miss_latency::cpu.inst 87547.663265                       # average overall miss latency
system.cpu.icache.demand_avg_miss_latency::total 87547.663265                       # average overall miss latency
system.cpu.icache.overall_avg_miss_latency::cpu.inst 87547.663265                       # average overall miss latency
system.cpu.icache.overall_avg_miss_latency::total 87547.663265                       # average overall miss latency
system.cpu.icache.blocked_cycles::no_mshrs            0                       # number of cycles access was blocked
system.cpu.icache.blocked_cycles::no_targets            0                       # number of cycles access was blocked
system.cpu.icache.blocked::no_mshrs                 0                       # number of cycles access was blocked
system.cpu.icache.blocked::no_targets               0                       # number of cycles access was blocked
system.cpu.icache.avg_blocked_cycles::no_mshrs          nan                       # average number of cycles each access was blocked
system.cpu.icache.avg_blocked_cycles::no_targets          nan                       # average number of cycles each access was blocked
system.cpu.icache.ReadReq_mshr_misses::cpu.inst          882                       # number of ReadReq MSHR misses
system.cpu.icache.ReadReq_mshr_misses::total          882                       # number of ReadReq MSHR misses
system.cpu.icache.demand_mshr_misses::cpu.inst          882                       # number of demand (read+write) MSHR misses
system.cpu.icache.demand_mshr_misses::total          882                       # number of demand (read+write) MSHR misses
system.cpu.icache.overall_mshr_misses::cpu.inst          882                       # number of overall MSHR misses
system.cpu.icache.overall_mshr_misses::total          882                       # number of overall MSHR misses
system.cpu.icache.ReadReq_mshr_miss_latency::cpu.inst     76629627                       # number of ReadReq MSHR miss cycles
system.cpu.icache.ReadReq_mshr_miss_latency::total     76629627                       # number of ReadReq MSHR miss cycles
system.cpu.icache.demand_mshr_miss_latency::cpu.inst     76629627                       # number of demand (read+write) MSHR miss cycles
system.cpu.icache.demand_mshr_miss_latency::total     76629627                       # number of demand (read+write) MSHR miss cycles
system.cpu.icache.overall_mshr_miss_latency::cpu.inst     76629627                       # number of overall MSHR miss cycles
system.cpu.icache.overall_mshr_miss_latency::total     76629627                       # number of overall MSHR miss cycles
system.cpu.icache.ReadReq_mshr_miss_rate::cpu.inst     0.000014                       # mshr miss rate for ReadReq accesses
system.cpu.icache.ReadReq_mshr_miss_rate::total     0.000014                       # mshr miss rate for ReadReq accesses
system.cpu.icache.demand_mshr_miss_rate::cpu.inst     0.000014                       # mshr miss rate for demand accesses
system.cpu.icache.demand_mshr_miss_rate::total     0.000014                       # mshr miss rate for demand accesses
system.cpu.icache.overall_mshr_miss_rate::cpu.inst     0.000014                       # mshr miss rate for overall accesses
system.cpu.icache.overall_mshr_miss_rate::total     0.000014                       # mshr miss rate for overall accesses
system.cpu.icache.ReadReq_avg_mshr_miss_latency::cpu.inst 86881.663265                       # average ReadReq mshr miss latency
system.cpu.icache.ReadReq_avg_mshr_miss_latency::total 86881.663265                       # average ReadReq mshr miss latency
system.cpu.icache.demand_avg_mshr_miss_latency::cpu.inst 86881.663265                       # average overall mshr miss latency
system.cpu.icache.demand_avg_mshr_miss_latency::total 86881.663265                       # average overall mshr miss latency
system.cpu.icache.overall_avg_mshr_miss_latency::cpu.inst 86881.663265                       # average overall mshr miss latency
system.cpu.icache.overall_avg_mshr_miss_latency::total 86881.663265                       # average overall mshr miss latency
system.l2bus.snoop_filter.tot_requests        2559601                       # Total number of requests made to the snoop filter.
system.l2bus.snoop_filter.hit_single_requests      1279052                       # Number of requests hitting in the snoop filter with a single holder of the requested data.
system.l2bus.snoop_filter.hit_multi_requests            2                       # Number of requests hitting in the snoop filter with multiple (>1) holders of the requested data.
system.l2bus.snoop_filter.tot_snoops              189                       # Total number of snoops made to the snoop filter.
system.l2bus.snoop_filter.hit_single_snoops          189                       # Number of snoops hitting in the snoop filter with a single holder of the requested data.
system.l2bus.snoop_filter.hit_multi_snoops            0                       # Number of snoops hitting in the snoop filter with multiple (>1) holders of the requested data.
system.l2bus.pwrStateResidencyTicks::UNDEFINED  77997430161                       # Cumulative time (in ticks) in various power states
system.l2bus.trans_dist::ReadResp               65696                       # Transaction distribution
system.l2bus.trans_dist::WritebackDirty       1277167                       # Transaction distribution
system.l2bus.trans_dist::CleanEvict              4312                       # Transaction distribution
system.l2bus.trans_dist::ReadExReq            1214854                       # Transaction distribution
system.l2bus.trans_dist::ReadExResp           1214854                       # Transaction distribution
system.l2bus.trans_dist::ReadSharedReq          65696                       # Transaction distribution
system.l2bus.pkt_count_system.cpu.icache.mem_side::system.l2cache.cpu_side         2171                       # Packet count per connected master and slave (bytes)
system.l2bus.pkt_count_system.cpu.dcache.mem_side::system.l2cache.cpu_side      3837980                       # Packet count per connected master and slave (bytes)
system.l2bus.pkt_count::total                 3840151                       # Packet count per connected master and slave (bytes)
system.l2bus.pkt_size_system.cpu.icache.mem_side::system.l2cache.cpu_side        56448                       # Cumulative packet size per connected master and slave (bytes)
system.l2bus.pkt_size_system.cpu.dcache.mem_side::system.l2cache.cpu_side    163610496                       # Cumulative packet size per connected master and slave (bytes)
system.l2bus.pkt_size::total                163666944                       # Cumulative packet size per connected master and slave (bytes)
system.l2bus.snoops                              2428                       # Total snoops (count)
system.l2bus.snoopTraffic                       26944                       # Total snoop traffic (bytes)
system.l2bus.snoop_fanout::samples            1282978                       # Request fanout histogram
system.l2bus.snoop_fanout::mean              0.000150                       # Request fanout histogram
system.l2bus.snoop_fanout::stdev             0.012232                       # Request fanout histogram
system.l2bus.snoop_fanout::underflows               0      0.00%      0.00% # Request fanout histogram
system.l2bus.snoop_fanout::0                  1282786     99.99%     99.99% # Request fanout histogram
system.l2bus.snoop_fanout::1                      192      0.01%    100.00% # Request fanout histogram
system.l2bus.snoop_fanout::2                        0      0.00%    100.00% # Request fanout histogram
system.l2bus.snoop_fanout::overflows                0      0.00%    100.00% # Request fanout histogram
system.l2bus.snoop_fanout::min_value                0                       # Request fanout histogram
system.l2bus.snoop_fanout::max_value                1                       # Request fanout histogram
system.l2bus.snoop_fanout::total              1282978                       # Request fanout histogram
system.l2bus.reqLayer0.occupancy           1702659969                       # Layer occupancy (ticks)
system.l2bus.reqLayer0.utilization                2.2                       # Layer utilization (%)
system.l2bus.respLayer0.occupancy              881118                       # Layer occupancy (ticks)
system.l2bus.respLayer0.utilization               0.0                       # Layer utilization (%)
system.l2bus.respLayer1.occupancy          1278388332                       # Layer occupancy (ticks)
system.l2bus.respLayer1.utilization               1.6                       # Layer utilization (%)
system.l2cache.tags.pwrStateResidencyTicks::UNDEFINED  77997430161                       # Cumulative time (in ticks) in various power states
system.l2cache.tags.replacements                 2428                       # number of replacements
system.l2cache.tags.tagsinuse            55888.648787                       # Cycle average of tags in use
system.l2cache.tags.total_refs                2493764                       # Total number of references to valid blocks.
system.l2cache.tags.sampled_refs                65785                       # Sample count of references to valid blocks.
system.l2cache.tags.avg_refs                37.907791                       # Average number of references to valid blocks.
system.l2cache.tags.warmup_cycle                    0                       # Cycle when the warmup percentage was hit.
system.l2cache.tags.occ_blocks::cpu.inst   498.282278                       # Average occupied blocks per requestor
system.l2cache.tags.occ_blocks::cpu.data 55390.366509                       # Average occupied blocks per requestor
system.l2cache.tags.occ_percent::cpu.inst     0.007603                       # Average percentage of cache occupancy
system.l2cache.tags.occ_percent::cpu.data     0.845190                       # Average percentage of cache occupancy
system.l2cache.tags.occ_percent::total       0.852793                       # Average percentage of cache occupancy
system.l2cache.tags.occ_task_id_blocks::1024        63357                       # Occupied blocks per task id
system.l2cache.tags.age_task_id_blocks_1024::0           86                       # Occupied blocks per task id
system.l2cache.tags.age_task_id_blocks_1024::1          189                       # Occupied blocks per task id
system.l2cache.tags.age_task_id_blocks_1024::4        63082                       # Occupied blocks per task id
system.l2cache.tags.occ_task_id_percent::1024     0.966751                       # Percentage of cache occupancy per task id
system.l2cache.tags.tag_accesses             20542577                       # Number of tag accesses
system.l2cache.tags.data_accesses            20542577                       # Number of data accesses
system.l2cache.pwrStateResidencyTicks::UNDEFINED  77997430161                       # Cumulative time (in ticks) in various power states
system.l2cache.WritebackDirty_hits::writebacks      1276746                       # number of WritebackDirty hits
system.l2cache.WritebackDirty_hits::total      1276746                       # number of WritebackDirty hits
system.l2cache.ReadExReq_hits::cpu.data       1151847                       # number of ReadExReq hits
system.l2cache.ReadExReq_hits::total          1151847                       # number of ReadExReq hits
system.l2cache.ReadSharedReq_hits::cpu.inst           26                       # number of ReadSharedReq hits
system.l2cache.ReadSharedReq_hits::cpu.data        62892                       # number of ReadSharedReq hits
system.l2cache.ReadSharedReq_hits::total        62918                       # number of ReadSharedReq hits
system.l2cache.demand_hits::cpu.inst               26                       # number of demand (read+write) hits
system.l2cache.demand_hits::cpu.data          1214739                       # number of demand (read+write) hits
system.l2cache.demand_hits::total             1214765                       # number of demand (read+write) hits
system.l2cache.overall_hits::cpu.inst              26                       # number of overall hits
system.l2cache.overall_hits::cpu.data         1214739                       # number of overall hits
system.l2cache.overall_hits::total            1214765                       # number of overall hits
system.l2cache.ReadExReq_misses::cpu.data        63007                       # number of ReadExReq misses
system.l2cache.ReadExReq_misses::total          63007                       # number of ReadExReq misses
system.l2cache.ReadSharedReq_misses::cpu.inst          856                       # number of ReadSharedReq misses
system.l2cache.ReadSharedReq_misses::cpu.data         1922                       # number of ReadSharedReq misses
system.l2cache.ReadSharedReq_misses::total         2778                       # number of ReadSharedReq misses
system.l2cache.demand_misses::cpu.inst            856                       # number of demand (read+write) misses
system.l2cache.demand_misses::cpu.data          64929                       # number of demand (read+write) misses
system.l2cache.demand_misses::total             65785                       # number of demand (read+write) misses
system.l2cache.overall_misses::cpu.inst           856                       # number of overall misses
system.l2cache.overall_misses::cpu.data         64929                       # number of overall misses
system.l2cache.overall_misses::total            65785                       # number of overall misses
system.l2cache.ReadExReq_miss_latency::cpu.data   5039940348                       # number of ReadExReq miss cycles
system.l2cache.ReadExReq_miss_latency::total   5039940348                       # number of ReadExReq miss cycles
system.l2cache.ReadSharedReq_miss_latency::cpu.inst     75563694                       # number of ReadSharedReq miss cycles
system.l2cache.ReadSharedReq_miss_latency::cpu.data    166288545                       # number of ReadSharedReq miss cycles
system.l2cache.ReadSharedReq_miss_latency::total    241852239                       # number of ReadSharedReq miss cycles
system.l2cache.demand_miss_latency::cpu.inst     75563694                       # number of demand (read+write) miss cycles
system.l2cache.demand_miss_latency::cpu.data   5206228893                       # number of demand (read+write) miss cycles
system.l2cache.demand_miss_latency::total   5281792587                       # number of demand (read+write) miss cycles
system.l2cache.overall_miss_latency::cpu.inst     75563694                       # number of overall miss cycles
system.l2cache.overall_miss_latency::cpu.data   5206228893                       # number of overall miss cycles
system.l2cache.overall_miss_latency::total   5281792587                       # number of overall miss cycles
system.l2cache.WritebackDirty_accesses::writebacks      1276746                       # number of WritebackDirty accesses(hits+misses)
system.l2cache.WritebackDirty_accesses::total      1276746                       # number of WritebackDirty accesses(hits+misses)
system.l2cache.ReadExReq_accesses::cpu.data      1214854                       # number of ReadExReq accesses(hits+misses)
system.l2cache.ReadExReq_accesses::total      1214854                       # number of ReadExReq accesses(hits+misses)
system.l2cache.ReadSharedReq_accesses::cpu.inst          882                       # number of ReadSharedReq accesses(hits+misses)
system.l2cache.ReadSharedReq_accesses::cpu.data        64814                       # number of ReadSharedReq accesses(hits+misses)
system.l2cache.ReadSharedReq_accesses::total        65696                       # number of ReadSharedReq accesses(hits+misses)
system.l2cache.demand_accesses::cpu.inst          882                       # number of demand (read+write) accesses
system.l2cache.demand_accesses::cpu.data      1279668                       # number of demand (read+write) accesses
system.l2cache.demand_accesses::total         1280550                       # number of demand (read+write) accesses
system.l2cache.overall_accesses::cpu.inst          882                       # number of overall (read+write) accesses
system.l2cache.overall_accesses::cpu.data      1279668                       # number of overall (read+write) accesses
system.l2cache.overall_accesses::total        1280550                       # number of overall (read+write) accesses
system.l2cache.ReadExReq_miss_rate::cpu.data     0.051864                       # miss rate for ReadExReq accesses
system.l2cache.ReadExReq_miss_rate::total     0.051864                       # miss rate for ReadExReq accesses
system.l2cache.ReadSharedReq_miss_rate::cpu.inst     0.970522                       # miss rate for ReadSharedReq accesses
system.l2cache.ReadSharedReq_miss_rate::cpu.data     0.029654                       # miss rate for ReadSharedReq accesses
system.l2cache.ReadSharedReq_miss_rate::total     0.042286                       # miss rate for ReadSharedReq accesses
system.l2cache.demand_miss_rate::cpu.inst     0.970522                       # miss rate for demand accesses
system.l2cache.demand_miss_rate::cpu.data     0.050739                       # miss rate for demand accesses
system.l2cache.demand_miss_rate::total       0.051372                       # miss rate for demand accesses
system.l2cache.overall_miss_rate::cpu.inst     0.970522                       # miss rate for overall accesses
system.l2cache.overall_miss_rate::cpu.data     0.050739                       # miss rate for overall accesses
system.l2cache.overall_miss_rate::total      0.051372                       # miss rate for overall accesses
system.l2cache.ReadExReq_avg_miss_latency::cpu.data 79990.165347                       # average ReadExReq miss latency
system.l2cache.ReadExReq_avg_miss_latency::total 79990.165347                       # average ReadExReq miss latency
system.l2cache.ReadSharedReq_avg_miss_latency::cpu.inst 88275.343458                       # average ReadSharedReq miss latency
system.l2cache.ReadSharedReq_avg_miss_latency::cpu.data 86518.493757                       # average ReadSharedReq miss latency
system.l2cache.ReadSharedReq_avg_miss_latency::total 87059.841253                       # average ReadSharedReq miss latency
system.l2cache.demand_avg_miss_latency::cpu.inst 88275.343458                       # average overall miss latency
system.l2cache.demand_avg_miss_latency::cpu.data 80183.414083                       # average overall miss latency
system.l2cache.demand_avg_miss_latency::total 80288.706954                       # average overall miss latency
system.l2cache.overall_avg_miss_latency::cpu.inst 88275.343458                       # average overall miss latency
system.l2cache.overall_avg_miss_latency::cpu.data 80183.414083                       # average overall miss latency
system.l2cache.overall_avg_miss_latency::total 80288.706954                       # average overall miss latency
system.l2cache.blocked_cycles::no_mshrs             0                       # number of cycles access was blocked
system.l2cache.blocked_cycles::no_targets            0                       # number of cycles access was blocked
system.l2cache.blocked::no_mshrs                    0                       # number of cycles access was blocked
system.l2cache.blocked::no_targets                  0                       # number of cycles access was blocked
system.l2cache.avg_blocked_cycles::no_mshrs          nan                       # average number of cycles each access was blocked
system.l2cache.avg_blocked_cycles::no_targets          nan                       # average number of cycles each access was blocked
system.l2cache.writebacks::writebacks             421                       # number of writebacks
system.l2cache.writebacks::total                  421                       # number of writebacks
system.l2cache.CleanEvict_mshr_misses::writebacks           50                       # number of CleanEvict MSHR misses
system.l2cache.CleanEvict_mshr_misses::total           50                       # number of CleanEvict MSHR misses
system.l2cache.ReadExReq_mshr_misses::cpu.data        63007                       # number of ReadExReq MSHR misses
system.l2cache.ReadExReq_mshr_misses::total        63007                       # number of ReadExReq MSHR misses
system.l2cache.ReadSharedReq_mshr_misses::cpu.inst          856                       # number of ReadSharedReq MSHR misses
system.l2cache.ReadSharedReq_mshr_misses::cpu.data         1922                       # number of ReadSharedReq MSHR misses
system.l2cache.ReadSharedReq_mshr_misses::total         2778                       # number of ReadSharedReq MSHR misses
system.l2cache.demand_mshr_misses::cpu.inst          856                       # number of demand (read+write) MSHR misses
system.l2cache.demand_mshr_misses::cpu.data        64929                       # number of demand (read+write) MSHR misses
system.l2cache.demand_mshr_misses::total        65785                       # number of demand (read+write) MSHR misses
system.l2cache.overall_mshr_misses::cpu.inst          856                       # number of overall MSHR misses
system.l2cache.overall_mshr_misses::cpu.data        64929                       # number of overall MSHR misses
system.l2cache.overall_mshr_misses::total        65785                       # number of overall MSHR misses
system.l2cache.ReadExReq_mshr_miss_latency::cpu.data   4620313728                       # number of ReadExReq MSHR miss cycles
system.l2cache.ReadExReq_mshr_miss_latency::total   4620313728                       # number of ReadExReq MSHR miss cycles
system.l2cache.ReadSharedReq_mshr_miss_latency::cpu.inst     69862734                       # number of ReadSharedReq MSHR miss cycles
system.l2cache.ReadSharedReq_mshr_miss_latency::cpu.data    153488025                       # number of ReadSharedReq MSHR miss cycles
system.l2cache.ReadSharedReq_mshr_miss_latency::total    223350759                       # number of ReadSharedReq MSHR miss cycles
system.l2cache.demand_mshr_miss_latency::cpu.inst     69862734                       # number of demand (read+write) MSHR miss cycles
system.l2cache.demand_mshr_miss_latency::cpu.data   4773801753                       # number of demand (read+write) MSHR miss cycles
system.l2cache.demand_mshr_miss_latency::total   4843664487                       # number of demand (read+write) MSHR miss cycles
system.l2cache.overall_mshr_miss_latency::cpu.inst     69862734                       # number of overall MSHR miss cycles
system.l2cache.overall_mshr_miss_latency::cpu.data   4773801753                       # number of overall MSHR miss cycles
system.l2cache.overall_mshr_miss_latency::total   4843664487                       # number of overall MSHR miss cycles
system.l2cache.CleanEvict_mshr_miss_rate::writebacks          inf                       # mshr miss rate for CleanEvict accesses
system.l2cache.CleanEvict_mshr_miss_rate::total          inf                       # mshr miss rate for CleanEvict accesses
system.l2cache.ReadExReq_mshr_miss_rate::cpu.data     0.051864                       # mshr miss rate for ReadExReq accesses
system.l2cache.ReadExReq_mshr_miss_rate::total     0.051864                       # mshr miss rate for ReadExReq accesses
system.l2cache.ReadSharedReq_mshr_miss_rate::cpu.inst     0.970522                       # mshr miss rate for ReadSharedReq accesses
system.l2cache.ReadSharedReq_mshr_miss_rate::cpu.data     0.029654                       # mshr miss rate for ReadSharedReq accesses
system.l2cache.ReadSharedReq_mshr_miss_rate::total     0.042286                       # mshr miss rate for ReadSharedReq accesses
system.l2cache.demand_mshr_miss_rate::cpu.inst     0.970522                       # mshr miss rate for demand accesses
system.l2cache.demand_mshr_miss_rate::cpu.data     0.050739                       # mshr miss rate for demand accesses
system.l2cache.demand_mshr_miss_rate::total     0.051372                       # mshr miss rate for demand accesses
system.l2cache.overall_mshr_miss_rate::cpu.inst     0.970522                       # mshr miss rate for overall accesses
system.l2cache.overall_mshr_miss_rate::cpu.data     0.050739                       # mshr miss rate for overall accesses
system.l2cache.overall_mshr_miss_rate::total     0.051372                       # mshr miss rate for overall accesses
system.l2cache.ReadExReq_avg_mshr_miss_latency::cpu.data 73330.165347                       # average ReadExReq mshr miss latency
system.l2cache.ReadExReq_avg_mshr_miss_latency::total 73330.165347                       # average ReadExReq mshr miss latency
system.l2cache.ReadSharedReq_avg_mshr_miss_latency::cpu.inst 81615.343458                       # average ReadSharedReq mshr miss latency
system.l2cache.ReadSharedReq_avg_mshr_miss_latency::cpu.data 79858.493757                       # average ReadSharedReq mshr miss latency
system.l2cache.ReadSharedReq_avg_mshr_miss_latency::total 80399.841253                       # average ReadSharedReq mshr miss latency
system.l2cache.demand_avg_mshr_miss_latency::cpu.inst 81615.343458                       # average overall mshr miss latency
system.l2cache.demand_avg_mshr_miss_latency::cpu.data 73523.414083                       # average overall mshr miss latency
system.l2cache.demand_avg_mshr_miss_latency::total 73628.706954                       # average overall mshr miss latency
system.l2cache.overall_avg_mshr_miss_latency::cpu.inst 81615.343458                       # average overall mshr miss latency
system.l2cache.overall_avg_mshr_miss_latency::cpu.data 73523.414083                       # average overall mshr miss latency
system.l2cache.overall_avg_mshr_miss_latency::total 73628.706954                       # average overall mshr miss latency
system.membus.snoop_filter.tot_requests         68073                       # Total number of requests made to the snoop filter.
system.membus.snoop_filter.hit_single_requests         2288                       # Number of requests hitting in the snoop filter with a single holder of the requested data.
system.membus.snoop_filter.hit_multi_requests            0                       # Number of requests hitting in the snoop filter with multiple (>1) holders of the requested data.
system.membus.snoop_filter.tot_snoops               0                       # Total number of snoops made to the snoop filter.
system.membus.snoop_filter.hit_single_snoops            0                       # Number of snoops hitting in the snoop filter with a single holder of the requested data.
system.membus.snoop_filter.hit_multi_snoops            0                       # Number of snoops hitting in the snoop filter with multiple (>1) holders of the requested data.
system.membus.pwrStateResidencyTicks::UNDEFINED  77997430161                       # Cumulative time (in ticks) in various power states
system.membus.trans_dist::ReadResp               2778                       # Transaction distribution
system.membus.trans_dist::WritebackDirty          421                       # Transaction distribution
system.membus.trans_dist::CleanEvict             1867                       # Transaction distribution
system.membus.trans_dist::ReadExReq             63007                       # Transaction distribution
system.membus.trans_dist::ReadExResp            63007                       # Transaction distribution
system.membus.trans_dist::ReadSharedReq          2778                       # Transaction distribution
system.membus.pkt_count_system.l2cache.mem_side::system.mem_ctrl.port       133858                       # Packet count per connected master and slave (bytes)
system.membus.pkt_count_system.l2cache.mem_side::total       133858                       # Packet count per connected master and slave (bytes)
system.membus.pkt_count::total                 133858                       # Packet count per connected master and slave (bytes)
system.membus.pkt_size_system.l2cache.mem_side::system.mem_ctrl.port      4237184                       # Cumulative packet size per connected master and slave (bytes)
system.membus.pkt_size_system.l2cache.mem_side::total      4237184                       # Cumulative packet size per connected master and slave (bytes)
system.membus.pkt_size::total                 4237184                       # Cumulative packet size per connected master and slave (bytes)
system.membus.snoops                                0                       # Total snoops (count)
system.membus.snoopTraffic                          0                       # Total snoop traffic (bytes)
system.membus.snoop_fanout::samples             65785                       # Request fanout histogram
system.membus.snoop_fanout::mean                    0                       # Request fanout histogram
system.membus.snoop_fanout::stdev                   0                       # Request fanout histogram
system.membus.snoop_fanout::underflows              0      0.00%      0.00% # Request fanout histogram
system.membus.snoop_fanout::0                   65785    100.00%    100.00% # Request fanout histogram
system.membus.snoop_fanout::1                       0      0.00%    100.00% # Request fanout histogram
system.membus.snoop_fanout::overflows               0      0.00%    100.00% # Request fanout histogram
system.membus.snoop_fanout::min_value               0                       # Request fanout histogram
system.membus.snoop_fanout::max_value               0                       # Request fanout histogram
system.membus.snoop_fanout::total               65785                       # Request fanout histogram
system.membus.reqLayer2.occupancy            23229081                       # Layer occupancy (ticks)
system.membus.reqLayer2.utilization               0.0                       # Layer utilization (%)
system.membus.respLayer0.occupancy          116752139                       # Layer occupancy (ticks)
system.membus.respLayer0.utilization              0.1                       # Layer utilization (%)

---------- End Simulation Statistics   ----------
