
---------- Begin Simulation Statistics ----------
sim_seconds                                  0.089707                       # Number of seconds simulated
sim_ticks                                 89706666251                       # Number of ticks simulated
final_tick                                89706666251                       # Number of ticks from beginning of simulation (restored from checkpoints and never reset)
sim_freq                                 1000000000000                       # Frequency of simulated ticks
host_inst_rate                                 243232                       # Simulator instruction rate (inst/s)
host_op_rate                                   418371                       # Simulator op (including micro ops) rate (op/s)
host_tick_rate                              457430115                       # Simulator tick rate (ticks/s)
host_mem_usage                                 685832                       # Number of bytes of host memory used
host_seconds                                   196.11                       # Real time elapsed on the host
sim_insts                                    47700244                       # Number of instructions simulated
sim_ops                                      82046706                       # Number of ops (including micro ops) simulated
system.clk_domain.voltage_domain.voltage            1                       # Voltage in Volts
system.clk_domain.clock                           667                       # Clock period in ticks
system.mem_ctrl.pwrStateResidencyTicks::UNDEFINED  89706666251                       # Cumulative time (in ticks) in various power states
system.mem_ctrl.bytes_read::cpu.inst            73856                       # Number of bytes read from this memory
system.mem_ctrl.bytes_read::cpu.data          4155648                       # Number of bytes read from this memory
system.mem_ctrl.bytes_read::total             4229504                       # Number of bytes read from this memory
system.mem_ctrl.bytes_inst_read::cpu.inst        73856                       # Number of instructions bytes read from this memory
system.mem_ctrl.bytes_inst_read::total          73856                       # Number of instructions bytes read from this memory
system.mem_ctrl.bytes_written::writebacks        32192                       # Number of bytes written to this memory
system.mem_ctrl.bytes_written::total            32192                       # Number of bytes written to this memory
system.mem_ctrl.num_reads::cpu.inst              1154                       # Number of read requests responded to by this memory
system.mem_ctrl.num_reads::cpu.data             64932                       # Number of read requests responded to by this memory
system.mem_ctrl.num_reads::total                66086                       # Number of read requests responded to by this memory
system.mem_ctrl.num_writes::writebacks            503                       # Number of write requests responded to by this memory
system.mem_ctrl.num_writes::total                 503                       # Number of write requests responded to by this memory
system.mem_ctrl.bw_read::cpu.inst              823306                       # Total read bandwidth from this memory (bytes/s)
system.mem_ctrl.bw_read::cpu.data            46324852                       # Total read bandwidth from this memory (bytes/s)
system.mem_ctrl.bw_read::total               47148157                       # Total read bandwidth from this memory (bytes/s)
system.mem_ctrl.bw_inst_read::cpu.inst         823306                       # Instruction read bandwidth from this memory (bytes/s)
system.mem_ctrl.bw_inst_read::total            823306                       # Instruction read bandwidth from this memory (bytes/s)
system.mem_ctrl.bw_write::writebacks           358859                       # Write bandwidth from this memory (bytes/s)
system.mem_ctrl.bw_write::total                358859                       # Write bandwidth from this memory (bytes/s)
system.mem_ctrl.bw_total::writebacks           358859                       # Total bandwidth to/from this memory (bytes/s)
system.mem_ctrl.bw_total::cpu.inst             823306                       # Total bandwidth to/from this memory (bytes/s)
system.mem_ctrl.bw_total::cpu.data           46324852                       # Total bandwidth to/from this memory (bytes/s)
system.mem_ctrl.bw_total::total              47507016                       # Total bandwidth to/from this memory (bytes/s)
system.mem_ctrl.readReqs                        66086                       # Number of read requests accepted
system.mem_ctrl.writeReqs                         503                       # Number of write requests accepted
system.mem_ctrl.readBursts                      66086                       # Number of DRAM read bursts, including those serviced by the write queue
system.mem_ctrl.writeBursts                       503                       # Number of DRAM write bursts, including those merged in the write queue
system.mem_ctrl.bytesReadDRAM                 4229440                       # Total number of bytes read from DRAM
system.mem_ctrl.bytesReadWrQ                       64                       # Total number of bytes read from write queue
system.mem_ctrl.bytesWritten                    30336                       # Total number of bytes written to DRAM
system.mem_ctrl.bytesReadSys                  4229504                       # Total read bytes from the system interface side
system.mem_ctrl.bytesWrittenSys                 32192                       # Total written bytes from the system interface side
system.mem_ctrl.servicedByWrQ                       1                       # Number of DRAM read bursts serviced by the write queue
system.mem_ctrl.mergedWrBursts                      0                       # Number of DRAM write bursts merged with an existing one
system.mem_ctrl.neitherReadNorWriteReqs             0                       # Number of requests that are neither read nor write
system.mem_ctrl.perBankRdBursts::0               4216                       # Per bank write bursts
system.mem_ctrl.perBankRdBursts::1               4207                       # Per bank write bursts
system.mem_ctrl.perBankRdBursts::2               4178                       # Per bank write bursts
system.mem_ctrl.perBankRdBursts::3               4125                       # Per bank write bursts
system.mem_ctrl.perBankRdBursts::4               4256                       # Per bank write bursts
system.mem_ctrl.perBankRdBursts::5               4266                       # Per bank write bursts
system.mem_ctrl.perBankRdBursts::6               4263                       # Per bank write bursts
system.mem_ctrl.perBankRdBursts::7               4133                       # Per bank write bursts
system.mem_ctrl.perBankRdBursts::8               4062                       # Per bank write bursts
system.mem_ctrl.perBankRdBursts::9               4143                       # Per bank write bursts
system.mem_ctrl.perBankRdBursts::10              4208                       # Per bank write bursts
system.mem_ctrl.perBankRdBursts::11              4093                       # Per bank write bursts
system.mem_ctrl.perBankRdBursts::12              3879                       # Per bank write bursts
system.mem_ctrl.perBankRdBursts::13              3916                       # Per bank write bursts
system.mem_ctrl.perBankRdBursts::14              3979                       # Per bank write bursts
system.mem_ctrl.perBankRdBursts::15              4161                       # Per bank write bursts
system.mem_ctrl.perBankWrBursts::0                 26                       # Per bank write bursts
system.mem_ctrl.perBankWrBursts::1                 31                       # Per bank write bursts
system.mem_ctrl.perBankWrBursts::2                  0                       # Per bank write bursts
system.mem_ctrl.perBankWrBursts::3                  3                       # Per bank write bursts
system.mem_ctrl.perBankWrBursts::4                 45                       # Per bank write bursts
system.mem_ctrl.perBankWrBursts::5                 84                       # Per bank write bursts
system.mem_ctrl.perBankWrBursts::6                 74                       # Per bank write bursts
system.mem_ctrl.perBankWrBursts::7                 55                       # Per bank write bursts
system.mem_ctrl.perBankWrBursts::8                  8                       # Per bank write bursts
system.mem_ctrl.perBankWrBursts::9                 43                       # Per bank write bursts
system.mem_ctrl.perBankWrBursts::10                61                       # Per bank write bursts
system.mem_ctrl.perBankWrBursts::11                13                       # Per bank write bursts
system.mem_ctrl.perBankWrBursts::12                 2                       # Per bank write bursts
system.mem_ctrl.perBankWrBursts::13                 0                       # Per bank write bursts
system.mem_ctrl.perBankWrBursts::14                25                       # Per bank write bursts
system.mem_ctrl.perBankWrBursts::15                 4                       # Per bank write bursts
system.mem_ctrl.numRdRetry                          0                       # Number of times read queue was full causing retry
system.mem_ctrl.numWrRetry                          0                       # Number of times write queue was full causing retry
system.mem_ctrl.totGap                    89706576873                       # Total gap between requests
system.mem_ctrl.readPktSize::0                      0                       # Read request sizes (log2)
system.mem_ctrl.readPktSize::1                      0                       # Read request sizes (log2)
system.mem_ctrl.readPktSize::2                      0                       # Read request sizes (log2)
system.mem_ctrl.readPktSize::3                      0                       # Read request sizes (log2)
system.mem_ctrl.readPktSize::4                      0                       # Read request sizes (log2)
system.mem_ctrl.readPktSize::5                      0                       # Read request sizes (log2)
system.mem_ctrl.readPktSize::6                  66086                       # Read request sizes (log2)
system.mem_ctrl.writePktSize::0                     0                       # Write request sizes (log2)
system.mem_ctrl.writePktSize::1                     0                       # Write request sizes (log2)
system.mem_ctrl.writePktSize::2                     0                       # Write request sizes (log2)
system.mem_ctrl.writePktSize::3                     0                       # Write request sizes (log2)
system.mem_ctrl.writePktSize::4                     0                       # Write request sizes (log2)
system.mem_ctrl.writePktSize::5                     0                       # Write request sizes (log2)
system.mem_ctrl.writePktSize::6                   503                       # Write request sizes (log2)
system.mem_ctrl.rdQLenPdf::0                    65822                       # What read queue length does an incoming req see
system.mem_ctrl.rdQLenPdf::1                      249                       # What read queue length does an incoming req see
system.mem_ctrl.rdQLenPdf::2                       14                       # What read queue length does an incoming req see
system.mem_ctrl.rdQLenPdf::3                        0                       # What read queue length does an incoming req see
system.mem_ctrl.rdQLenPdf::4                        0                       # What read queue length does an incoming req see
system.mem_ctrl.rdQLenPdf::5                        0                       # What read queue length does an incoming req see
system.mem_ctrl.rdQLenPdf::6                        0                       # What read queue length does an incoming req see
system.mem_ctrl.rdQLenPdf::7                        0                       # What read queue length does an incoming req see
system.mem_ctrl.rdQLenPdf::8                        0                       # What read queue length does an incoming req see
system.mem_ctrl.rdQLenPdf::9                        0                       # What read queue length does an incoming req see
system.mem_ctrl.rdQLenPdf::10                       0                       # What read queue length does an incoming req see
system.mem_ctrl.rdQLenPdf::11                       0                       # What read queue length does an incoming req see
system.mem_ctrl.rdQLenPdf::12                       0                       # What read queue length does an incoming req see
system.mem_ctrl.rdQLenPdf::13                       0                       # What read queue length does an incoming req see
system.mem_ctrl.rdQLenPdf::14                       0                       # What read queue length does an incoming req see
system.mem_ctrl.rdQLenPdf::15                       0                       # What read queue length does an incoming req see
system.mem_ctrl.rdQLenPdf::16                       0                       # What read queue length does an incoming req see
system.mem_ctrl.rdQLenPdf::17                       0                       # What read queue length does an incoming req see
system.mem_ctrl.rdQLenPdf::18                       0                       # What read queue length does an incoming req see
system.mem_ctrl.rdQLenPdf::19                       0                       # What read queue length does an incoming req see
system.mem_ctrl.rdQLenPdf::20                       0                       # What read queue length does an incoming req see
system.mem_ctrl.rdQLenPdf::21                       0                       # What read queue length does an incoming req see
system.mem_ctrl.rdQLenPdf::22                       0                       # What read queue length does an incoming req see
system.mem_ctrl.rdQLenPdf::23                       0                       # What read queue length does an incoming req see
system.mem_ctrl.rdQLenPdf::24                       0                       # What read queue length does an incoming req see
system.mem_ctrl.rdQLenPdf::25                       0                       # What read queue length does an incoming req see
system.mem_ctrl.rdQLenPdf::26                       0                       # What read queue length does an incoming req see
system.mem_ctrl.rdQLenPdf::27                       0                       # What read queue length does an incoming req see
system.mem_ctrl.rdQLenPdf::28                       0                       # What read queue length does an incoming req see
system.mem_ctrl.rdQLenPdf::29                       0                       # What read queue length does an incoming req see
system.mem_ctrl.rdQLenPdf::30                       0                       # What read queue length does an incoming req see
system.mem_ctrl.rdQLenPdf::31                       0                       # What read queue length does an incoming req see
system.mem_ctrl.wrQLenPdf::0                        1                       # What write queue length does an incoming req see
system.mem_ctrl.wrQLenPdf::1                        1                       # What write queue length does an incoming req see
system.mem_ctrl.wrQLenPdf::2                        1                       # What write queue length does an incoming req see
system.mem_ctrl.wrQLenPdf::3                        1                       # What write queue length does an incoming req see
system.mem_ctrl.wrQLenPdf::4                        1                       # What write queue length does an incoming req see
system.mem_ctrl.wrQLenPdf::5                        1                       # What write queue length does an incoming req see
system.mem_ctrl.wrQLenPdf::6                        1                       # What write queue length does an incoming req see
system.mem_ctrl.wrQLenPdf::7                        1                       # What write queue length does an incoming req see
system.mem_ctrl.wrQLenPdf::8                        1                       # What write queue length does an incoming req see
system.mem_ctrl.wrQLenPdf::9                        1                       # What write queue length does an incoming req see
system.mem_ctrl.wrQLenPdf::10                       1                       # What write queue length does an incoming req see
system.mem_ctrl.wrQLenPdf::11                       1                       # What write queue length does an incoming req see
system.mem_ctrl.wrQLenPdf::12                       1                       # What write queue length does an incoming req see
system.mem_ctrl.wrQLenPdf::13                       1                       # What write queue length does an incoming req see
system.mem_ctrl.wrQLenPdf::14                       1                       # What write queue length does an incoming req see
system.mem_ctrl.wrQLenPdf::15                      13                       # What write queue length does an incoming req see
system.mem_ctrl.wrQLenPdf::16                      14                       # What write queue length does an incoming req see
system.mem_ctrl.wrQLenPdf::17                      28                       # What write queue length does an incoming req see
system.mem_ctrl.wrQLenPdf::18                      29                       # What write queue length does an incoming req see
system.mem_ctrl.wrQLenPdf::19                      29                       # What write queue length does an incoming req see
system.mem_ctrl.wrQLenPdf::20                      29                       # What write queue length does an incoming req see
system.mem_ctrl.wrQLenPdf::21                      29                       # What write queue length does an incoming req see
system.mem_ctrl.wrQLenPdf::22                      29                       # What write queue length does an incoming req see
system.mem_ctrl.wrQLenPdf::23                      29                       # What write queue length does an incoming req see
system.mem_ctrl.wrQLenPdf::24                      29                       # What write queue length does an incoming req see
system.mem_ctrl.wrQLenPdf::25                      29                       # What write queue length does an incoming req see
system.mem_ctrl.wrQLenPdf::26                      29                       # What write queue length does an incoming req see
system.mem_ctrl.wrQLenPdf::27                      30                       # What write queue length does an incoming req see
system.mem_ctrl.wrQLenPdf::28                      29                       # What write queue length does an incoming req see
system.mem_ctrl.wrQLenPdf::29                      29                       # What write queue length does an incoming req see
system.mem_ctrl.wrQLenPdf::30                      28                       # What write queue length does an incoming req see
system.mem_ctrl.wrQLenPdf::31                      28                       # What write queue length does an incoming req see
system.mem_ctrl.wrQLenPdf::32                      28                       # What write queue length does an incoming req see
system.mem_ctrl.wrQLenPdf::33                       0                       # What write queue length does an incoming req see
system.mem_ctrl.wrQLenPdf::34                       0                       # What write queue length does an incoming req see
system.mem_ctrl.wrQLenPdf::35                       0                       # What write queue length does an incoming req see
system.mem_ctrl.wrQLenPdf::36                       0                       # What write queue length does an incoming req see
system.mem_ctrl.wrQLenPdf::37                       0                       # What write queue length does an incoming req see
system.mem_ctrl.wrQLenPdf::38                       0                       # What write queue length does an incoming req see
system.mem_ctrl.wrQLenPdf::39                       0                       # What write queue length does an incoming req see
system.mem_ctrl.wrQLenPdf::40                       0                       # What write queue length does an incoming req see
system.mem_ctrl.wrQLenPdf::41                       0                       # What write queue length does an incoming req see
system.mem_ctrl.wrQLenPdf::42                       0                       # What write queue length does an incoming req see
system.mem_ctrl.wrQLenPdf::43                       0                       # What write queue length does an incoming req see
system.mem_ctrl.wrQLenPdf::44                       0                       # What write queue length does an incoming req see
system.mem_ctrl.wrQLenPdf::45                       0                       # What write queue length does an incoming req see
system.mem_ctrl.wrQLenPdf::46                       0                       # What write queue length does an incoming req see
system.mem_ctrl.wrQLenPdf::47                       0                       # What write queue length does an incoming req see
system.mem_ctrl.wrQLenPdf::48                       0                       # What write queue length does an incoming req see
system.mem_ctrl.wrQLenPdf::49                       0                       # What write queue length does an incoming req see
system.mem_ctrl.wrQLenPdf::50                       0                       # What write queue length does an incoming req see
system.mem_ctrl.wrQLenPdf::51                       0                       # What write queue length does an incoming req see
system.mem_ctrl.wrQLenPdf::52                       0                       # What write queue length does an incoming req see
system.mem_ctrl.wrQLenPdf::53                       0                       # What write queue length does an incoming req see
system.mem_ctrl.wrQLenPdf::54                       0                       # What write queue length does an incoming req see
system.mem_ctrl.wrQLenPdf::55                       0                       # What write queue length does an incoming req see
system.mem_ctrl.wrQLenPdf::56                       0                       # What write queue length does an incoming req see
system.mem_ctrl.wrQLenPdf::57                       0                       # What write queue length does an incoming req see
system.mem_ctrl.wrQLenPdf::58                       0                       # What write queue length does an incoming req see
system.mem_ctrl.wrQLenPdf::59                       0                       # What write queue length does an incoming req see
system.mem_ctrl.wrQLenPdf::60                       0                       # What write queue length does an incoming req see
system.mem_ctrl.wrQLenPdf::61                       0                       # What write queue length does an incoming req see
system.mem_ctrl.wrQLenPdf::62                       0                       # What write queue length does an incoming req see
system.mem_ctrl.wrQLenPdf::63                       0                       # What write queue length does an incoming req see
system.mem_ctrl.bytesPerActivate::samples         6579                       # Bytes accessed per row activation
system.mem_ctrl.bytesPerActivate::mean     647.179207                       # Bytes accessed per row activation
system.mem_ctrl.bytesPerActivate::gmean    532.473952                       # Bytes accessed per row activation
system.mem_ctrl.bytesPerActivate::stdev    344.660678                       # Bytes accessed per row activation
system.mem_ctrl.bytesPerActivate::0-127           197      2.99%      2.99% # Bytes accessed per row activation
system.mem_ctrl.bytesPerActivate::128-255          368      5.59%      8.59% # Bytes accessed per row activation
system.mem_ctrl.bytesPerActivate::256-383          273      4.15%     12.74% # Bytes accessed per row activation
system.mem_ctrl.bytesPerActivate::384-511         2554     38.82%     51.56% # Bytes accessed per row activation
system.mem_ctrl.bytesPerActivate::512-639           96      1.46%     53.02% # Bytes accessed per row activation
system.mem_ctrl.bytesPerActivate::640-767           92      1.40%     54.42% # Bytes accessed per row activation
system.mem_ctrl.bytesPerActivate::768-895          136      2.07%     56.48% # Bytes accessed per row activation
system.mem_ctrl.bytesPerActivate::896-1023           74      1.12%     57.61% # Bytes accessed per row activation
system.mem_ctrl.bytesPerActivate::1024-1151         2789     42.39%    100.00% # Bytes accessed per row activation
system.mem_ctrl.bytesPerActivate::total          6579                       # Bytes accessed per row activation
system.mem_ctrl.rdPerTurnAround::samples           28                       # Reads before turning the bus around for writes
system.mem_ctrl.rdPerTurnAround::mean     2359.678571                       # Reads before turning the bus around for writes
system.mem_ctrl.rdPerTurnAround::gmean      41.451333                       # Reads before turning the bus around for writes
system.mem_ctrl.rdPerTurnAround::stdev   11327.885021                       # Reads before turning the bus around for writes
system.mem_ctrl.rdPerTurnAround::0-2047            26     92.86%     92.86% # Reads before turning the bus around for writes
system.mem_ctrl.rdPerTurnAround::2048-4095            1      3.57%     96.43% # Reads before turning the bus around for writes
system.mem_ctrl.rdPerTurnAround::59392-61439            1      3.57%    100.00% # Reads before turning the bus around for writes
system.mem_ctrl.rdPerTurnAround::total             28                       # Reads before turning the bus around for writes
system.mem_ctrl.wrPerTurnAround::samples           28                       # Writes before turning the bus around for reads
system.mem_ctrl.wrPerTurnAround::mean       16.928571                       # Writes before turning the bus around for reads
system.mem_ctrl.wrPerTurnAround::gmean      16.897460                       # Writes before turning the bus around for reads
system.mem_ctrl.wrPerTurnAround::stdev       1.051580                       # Writes before turning the bus around for reads
system.mem_ctrl.wrPerTurnAround::16                15     53.57%     53.57% # Writes before turning the bus around for reads
system.mem_ctrl.wrPerTurnAround::17                 1      3.57%     57.14% # Writes before turning the bus around for reads
system.mem_ctrl.wrPerTurnAround::18                11     39.29%     96.43% # Writes before turning the bus around for reads
system.mem_ctrl.wrPerTurnAround::19                 1      3.57%    100.00% # Writes before turning the bus around for reads
system.mem_ctrl.wrPerTurnAround::total             28                       # Writes before turning the bus around for reads
system.mem_ctrl.totQLat                     938208368                       # Total ticks spent queuing
system.mem_ctrl.totMemAccLat               2051211938                       # Total ticks spent from burst creation until serviced by the DRAM
system.mem_ctrl.totBusLat                   247950920                       # Total ticks spent in databus transfers
system.mem_ctrl.avgQLat                      14196.99                       # Average queueing delay per DRAM burst
system.mem_ctrl.avgBusLat                     3752.00                       # Average bus latency per DRAM burst
system.mem_ctrl.avgMemAccLat                 31038.99                       # Average memory access latency per DRAM burst
system.mem_ctrl.avgRdBW                         47.15                       # Average DRAM read bandwidth in MiByte/s
system.mem_ctrl.avgWrBW                          0.34                       # Average achieved write bandwidth in MiByte/s
system.mem_ctrl.avgRdBWSys                      47.15                       # Average system read bandwidth in MiByte/s
system.mem_ctrl.avgWrBWSys                       0.36                       # Average system write bandwidth in MiByte/s
system.mem_ctrl.peakBW                       17057.00                       # Theoretical peak bandwidth in MiByte/s
system.mem_ctrl.busUtil                          0.28                       # Data bus utilization in percentage
system.mem_ctrl.busUtilRead                      0.28                       # Data bus utilization in percentage for reads
system.mem_ctrl.busUtilWrite                     0.00                       # Data bus utilization in percentage for writes
system.mem_ctrl.avgRdQLen                        1.00                       # Average read queue length when enqueuing
system.mem_ctrl.avgWrQLen                       14.71                       # Average write queue length when enqueuing
system.mem_ctrl.readRowHits                     59579                       # Number of row buffer hits during reads
system.mem_ctrl.writeRowHits                      393                       # Number of row buffer hits during writes
system.mem_ctrl.readRowHitRate                  90.16                       # Row buffer hit rate for reads
system.mem_ctrl.writeRowHitRate                 78.13                       # Row buffer hit rate for writes
system.mem_ctrl.avgGap                     1347168.10                       # Average gap between requests
system.mem_ctrl.pageHitRate                     90.06                       # Row buffer hit rate, read and write combined
system.mem_ctrl_0.actEnergy              35736809.472000                       # Energy for activate commands per rank (pJ)
system.mem_ctrl_0.preEnergy              17618521.536000                       # Energy for precharge commands per rank (pJ)
system.mem_ctrl_0.readEnergy             222673756.032000                       # Energy for read commands per rank (pJ)
system.mem_ctrl_0.writeEnergy            1617892.416000                       # Energy for write commands per rank (pJ)
system.mem_ctrl_0.refreshEnergy          1021060035.072000                       # Energy for refresh commands per rank (pJ)
system.mem_ctrl_0.actBackEnergy          639563623.776000                       # Energy for active background per rank (pJ)
system.mem_ctrl_0.preBackEnergy          36519180.264000                       # Energy for precharge background per rank (pJ)
system.mem_ctrl_0.actPowerDownEnergy     5346562585.056000                       # Energy for active power-down per rank (pJ)
system.mem_ctrl_0.prePowerDownEnergy     354413405.976000                       # Energy for precharge power-down per rank (pJ)
system.mem_ctrl_0.selfRefreshEnergy      18642674764.896000                       # Energy for self refresh per rank (pJ)
system.mem_ctrl_0.totalEnergy            26318440574.496002                       # Total energy per rank (pJ)
system.mem_ctrl_0.averagePower             293.383330                       # Core power per rank (mW)
system.mem_ctrl_0.totalIdleTime           88412791475                       # Total Idle time Per DRAM Rank
system.mem_ctrl_0.memoryStateTime::IDLE      25198008                       # Time in different power states
system.mem_ctrl_0.memoryStateTime::REF      412032000                       # Time in different power states
system.mem_ctrl_0.memoryStateTime::SREF   77600207860                       # Time in different power states
system.mem_ctrl_0.memoryStateTime::PRE_PDN    686835153                       # Time in different power states
system.mem_ctrl_0.memoryStateTime::ACT      856334777                       # Time in different power states
system.mem_ctrl_0.memoryStateTime::ACT_PDN  10126058453                       # Time in different power states
system.mem_ctrl_1.actEnergy              33661293.120000                       # Energy for activate commands per rank (pJ)
system.mem_ctrl_1.preEnergy              16594067.952000                       # Energy for precharge commands per rank (pJ)
system.mem_ctrl_1.readEnergy             214711666.848000                       # Energy for read commands per rank (pJ)
system.mem_ctrl_1.writeEnergy            793683.072000                       # Energy for write commands per rank (pJ)
system.mem_ctrl_1.refreshEnergy          995275690.752000                       # Energy for refresh commands per rank (pJ)
system.mem_ctrl_1.actBackEnergy          628054183.680000                       # Energy for active background per rank (pJ)
system.mem_ctrl_1.preBackEnergy          37914777.936000                       # Energy for precharge background per rank (pJ)
system.mem_ctrl_1.actPowerDownEnergy     5185686970.464000                       # Energy for active power-down per rank (pJ)
system.mem_ctrl_1.prePowerDownEnergy     354757535.664000                       # Energy for precharge power-down per rank (pJ)
system.mem_ctrl_1.selfRefreshEnergy      18721281220.992001                       # Energy for self refresh per rank (pJ)
system.mem_ctrl_1.totalEnergy            26188731090.480003                       # Total energy per rank (pJ)
system.mem_ctrl_1.averagePower             291.937401                       # Core power per rank (mW)
system.mem_ctrl_1.totalIdleTime           88431725799                       # Total Idle time Per DRAM Rank
system.mem_ctrl_1.memoryStateTime::IDLE      29798214                       # Time in different power states
system.mem_ctrl_1.memoryStateTime::REF      401650000                       # Time in different power states
system.mem_ctrl_1.memoryStateTime::SREF   77922884078                       # Time in different power states
system.mem_ctrl_1.memoryStateTime::PRE_PDN    687510243                       # Time in different power states
system.mem_ctrl_1.memoryStateTime::ACT      843441710                       # Time in different power states
system.mem_ctrl_1.memoryStateTime::ACT_PDN   9821382006                       # Time in different power states
system.pwrStateResidencyTicks::UNDEFINED  89706666251                       # Cumulative time (in ticks) in various power states
system.cpu.branchPred.lookups                      82                       # Number of BP lookups
system.cpu.branchPred.condPredicted                82                       # Number of conditional branches predicted
system.cpu.branchPred.condIncorrect                32                       # Number of conditional branches incorrect
system.cpu.branchPred.BTBLookups                   37                       # Number of BTB lookups
system.cpu.branchPred.BTBHits                       0                       # Number of BTB hits
system.cpu.branchPred.BTBCorrect                    0                       # Number of correct BTB predictions (this stat may not work properly.
system.cpu.branchPred.BTBHitPct              0.000000                       # BTB Hit Percentage
system.cpu.branchPred.usedRAS                       0                       # Number of times the RAS was used to get a target.
system.cpu.branchPred.RASInCorrect                  0                       # Number of incorrect RAS predictions.
system.cpu.branchPred.indirectLookups              37                       # Number of indirect predictor lookups.
system.cpu.branchPred.indirectHits                  0                       # Number of indirect target hits.
system.cpu.branchPred.indirectMisses               37                       # Number of indirect misses.
system.cpu.branchPredindirectMispredicted           12                       # Number of mispredicted indirect branches.
system.cpu.dtb.walker.pwrStateResidencyTicks::UNDEFINED  89706666251                       # Cumulative time (in ticks) in various power states
system.cpu.dtb.rdAccesses                    26909323                       # TLB accesses on read requests
system.cpu.dtb.wrAccesses                     7334875                       # TLB accesses on write requests
system.cpu.dtb.rdMisses                          2851                       # TLB misses on read requests
system.cpu.dtb.wrMisses                        116849                       # TLB misses on write requests
system.cpu.apic_clk_domain.clock                10672                       # Clock period in ticks
system.cpu.interrupts.pwrStateResidencyTicks::UNDEFINED  89706666251                       # Cumulative time (in ticks) in various power states
system.cpu.itb.walker.pwrStateResidencyTicks::UNDEFINED  89706666251                       # Cumulative time (in ticks) in various power states
system.cpu.itb.rdAccesses                           0                       # TLB accesses on read requests
system.cpu.itb.wrAccesses                    18313229                       # TLB accesses on write requests
system.cpu.itb.rdMisses                             0                       # TLB misses on read requests
system.cpu.itb.wrMisses                            90                       # TLB misses on write requests
system.cpu.workload.numSyscalls                    33                       # Number of system calls
system.cpu.pwrStateResidencyTicks::ON     89706666251                       # Cumulative time (in ticks) in various power states
system.cpu.numCycles                        134492753                       # number of cpu cycles simulated
system.cpu.numWorkItemsStarted                      0                       # number of work items this cpu started
system.cpu.numWorkItemsCompleted                    0                       # number of work items this cpu completed
system.cpu.committedInsts                    47700244                       # Number of instructions committed
system.cpu.committedOps                      82046706                       # Number of ops (including micro ops) committed
system.cpu.discardedOps                      13323088                       # Number of ops (including micro ops) which were discarded before commit
system.cpu.numFetchSuspends                         0                       # Number of times Execute suspended instruction fetching
system.cpu.cpi                               2.819540                       # CPI: cycles per instruction
system.cpu.ipc                               0.354668                       # IPC: instructions per cycle
system.cpu.op_class_0::No_OpClass                1287      0.00%      0.00% # Class of committed instruction
system.cpu.op_class_0::IntAlu                50852257     61.98%     61.98% # Class of committed instruction
system.cpu.op_class_0::IntMult                   1192      0.00%     61.98% # Class of committed instruction
system.cpu.op_class_0::IntDiv                    1131      0.00%     61.98% # Class of committed instruction
system.cpu.op_class_0::FloatAdd                  2227      0.00%     61.99% # Class of committed instruction
system.cpu.op_class_0::FloatCmp                     0      0.00%     61.99% # Class of committed instruction
system.cpu.op_class_0::FloatCvt                     0      0.00%     61.99% # Class of committed instruction
system.cpu.op_class_0::FloatMult                    0      0.00%     61.99% # Class of committed instruction
system.cpu.op_class_0::FloatMultAcc                 0      0.00%     61.99% # Class of committed instruction
system.cpu.op_class_0::FloatDiv                     0      0.00%     61.99% # Class of committed instruction
system.cpu.op_class_0::FloatMisc                    0      0.00%     61.99% # Class of committed instruction
system.cpu.op_class_0::FloatSqrt                    0      0.00%     61.99% # Class of committed instruction
system.cpu.op_class_0::SimdAdd                      0      0.00%     61.99% # Class of committed instruction
system.cpu.op_class_0::SimdAddAcc                   0      0.00%     61.99% # Class of committed instruction
system.cpu.op_class_0::SimdAlu                      0      0.00%     61.99% # Class of committed instruction
system.cpu.op_class_0::SimdCmp                      0      0.00%     61.99% # Class of committed instruction
system.cpu.op_class_0::SimdCvt                      0      0.00%     61.99% # Class of committed instruction
system.cpu.op_class_0::SimdMisc                     0      0.00%     61.99% # Class of committed instruction
system.cpu.op_class_0::SimdMult                     0      0.00%     61.99% # Class of committed instruction
system.cpu.op_class_0::SimdMultAcc                  0      0.00%     61.99% # Class of committed instruction
system.cpu.op_class_0::SimdShift                    0      0.00%     61.99% # Class of committed instruction
system.cpu.op_class_0::SimdShiftAcc                 0      0.00%     61.99% # Class of committed instruction
system.cpu.op_class_0::SimdSqrt                     0      0.00%     61.99% # Class of committed instruction
system.cpu.op_class_0::SimdFloatAdd                 0      0.00%     61.99% # Class of committed instruction
system.cpu.op_class_0::SimdFloatAlu                 0      0.00%     61.99% # Class of committed instruction
system.cpu.op_class_0::SimdFloatCmp                 0      0.00%     61.99% # Class of committed instruction
system.cpu.op_class_0::SimdFloatCvt                 0      0.00%     61.99% # Class of committed instruction
system.cpu.op_class_0::SimdFloatDiv                 0      0.00%     61.99% # Class of committed instruction
system.cpu.op_class_0::SimdFloatMisc                0      0.00%     61.99% # Class of committed instruction
system.cpu.op_class_0::SimdFloatMult                0      0.00%     61.99% # Class of committed instruction
system.cpu.op_class_0::SimdFloatMultAcc             0      0.00%     61.99% # Class of committed instruction
system.cpu.op_class_0::SimdFloatSqrt                0      0.00%     61.99% # Class of committed instruction
system.cpu.op_class_0::MemRead               23853209     29.07%     91.06% # Class of committed instruction
system.cpu.op_class_0::MemWrite               7334237      8.94%    100.00% # Class of committed instruction
system.cpu.op_class_0::FloatMemRead               782      0.00%    100.00% # Class of committed instruction
system.cpu.op_class_0::FloatMemWrite              384      0.00%    100.00% # Class of committed instruction
system.cpu.op_class_0::IprAccess                    0      0.00%    100.00% # Class of committed instruction
system.cpu.op_class_0::InstPrefetch                 0      0.00%    100.00% # Class of committed instruction
system.cpu.op_class_0::total                 82046706                       # Class of committed instruction
system.cpu.tickCycles                       126506191                       # Number of cycles that the object actually ticked
system.cpu.idleCycles                         7986562                       # Total number of cycles that the object has spent stopped
system.cpu.dcache.tags.pwrStateResidencyTicks::UNDEFINED  89706666251                       # Cumulative time (in ticks) in various power states
system.cpu.dcache.tags.replacements           1278653                       # number of replacements
system.cpu.dcache.tags.tagsinuse          1022.643488                       # Cycle average of tags in use
system.cpu.dcache.tags.total_refs            32897473                       # Total number of references to valid blocks.
system.cpu.dcache.tags.sampled_refs           1279677                       # Sample count of references to valid blocks.
system.cpu.dcache.tags.avg_refs             25.707638                       # Average number of references to valid blocks.
system.cpu.dcache.tags.warmup_cycle         384951046                       # Cycle when the warmup percentage was hit.
system.cpu.dcache.tags.occ_blocks::cpu.data  1022.643488                       # Average occupied blocks per requestor
system.cpu.dcache.tags.occ_percent::cpu.data     0.998675                       # Average percentage of cache occupancy
system.cpu.dcache.tags.occ_percent::total     0.998675                       # Average percentage of cache occupancy
system.cpu.dcache.tags.occ_task_id_blocks::1024         1024                       # Occupied blocks per task id
system.cpu.dcache.tags.age_task_id_blocks_1024::0           37                       # Occupied blocks per task id
system.cpu.dcache.tags.age_task_id_blocks_1024::1          246                       # Occupied blocks per task id
system.cpu.dcache.tags.age_task_id_blocks_1024::2          739                       # Occupied blocks per task id
system.cpu.dcache.tags.age_task_id_blocks_1024::4            2                       # Occupied blocks per task id
system.cpu.dcache.tags.occ_task_id_percent::1024            1                       # Percentage of cache occupancy per task id
system.cpu.dcache.tags.tag_accesses          69759655                       # Number of tag accesses
system.cpu.dcache.tags.data_accesses         69759655                       # Number of data accesses
system.cpu.dcache.pwrStateResidencyTicks::UNDEFINED  89706666251                       # Cumulative time (in ticks) in various power states
system.cpu.dcache.ReadReq_hits::cpu.data     26840520                       # number of ReadReq hits
system.cpu.dcache.ReadReq_hits::total        26840520                       # number of ReadReq hits
system.cpu.dcache.WriteReq_hits::cpu.data      6056953                       # number of WriteReq hits
system.cpu.dcache.WriteReq_hits::total        6056953                       # number of WriteReq hits
system.cpu.dcache.demand_hits::cpu.data      32897473                       # number of demand (read+write) hits
system.cpu.dcache.demand_hits::total         32897473                       # number of demand (read+write) hits
system.cpu.dcache.overall_hits::cpu.data     32897473                       # number of overall hits
system.cpu.dcache.overall_hits::total        32897473                       # number of overall hits
system.cpu.dcache.ReadReq_misses::cpu.data        64848                       # number of ReadReq misses
system.cpu.dcache.ReadReq_misses::total         64848                       # number of ReadReq misses
system.cpu.dcache.WriteReq_misses::cpu.data      1277668                       # number of WriteReq misses
system.cpu.dcache.WriteReq_misses::total      1277668                       # number of WriteReq misses
system.cpu.dcache.demand_misses::cpu.data      1342516                       # number of demand (read+write) misses
system.cpu.dcache.demand_misses::total        1342516                       # number of demand (read+write) misses
system.cpu.dcache.overall_misses::cpu.data      1342516                       # number of overall misses
system.cpu.dcache.overall_misses::total       1342516                       # number of overall misses
system.cpu.dcache.ReadReq_miss_latency::cpu.data   1262385544                       # number of ReadReq miss cycles
system.cpu.dcache.ReadReq_miss_latency::total   1262385544                       # number of ReadReq miss cycles
system.cpu.dcache.WriteReq_miss_latency::cpu.data  30162055491                       # number of WriteReq miss cycles
system.cpu.dcache.WriteReq_miss_latency::total  30162055491                       # number of WriteReq miss cycles
system.cpu.dcache.demand_miss_latency::cpu.data  31424441035                       # number of demand (read+write) miss cycles
system.cpu.dcache.demand_miss_latency::total  31424441035                       # number of demand (read+write) miss cycles
system.cpu.dcache.overall_miss_latency::cpu.data  31424441035                       # number of overall miss cycles
system.cpu.dcache.overall_miss_latency::total  31424441035                       # number of overall miss cycles
system.cpu.dcache.ReadReq_accesses::cpu.data     26905368                       # number of ReadReq accesses(hits+misses)
system.cpu.dcache.ReadReq_accesses::total     26905368                       # number of ReadReq accesses(hits+misses)
system.cpu.dcache.WriteReq_accesses::cpu.data      7334621                       # number of WriteReq accesses(hits+misses)
system.cpu.dcache.WriteReq_accesses::total      7334621                       # number of WriteReq accesses(hits+misses)
system.cpu.dcache.demand_accesses::cpu.data     34239989                       # number of demand (read+write) accesses
system.cpu.dcache.demand_accesses::total     34239989                       # number of demand (read+write) accesses
system.cpu.dcache.overall_accesses::cpu.data     34239989                       # number of overall (read+write) accesses
system.cpu.dcache.overall_accesses::total     34239989                       # number of overall (read+write) accesses
system.cpu.dcache.ReadReq_miss_rate::cpu.data     0.002410                       # miss rate for ReadReq accesses
system.cpu.dcache.ReadReq_miss_rate::total     0.002410                       # miss rate for ReadReq accesses
system.cpu.dcache.WriteReq_miss_rate::cpu.data     0.174197                       # miss rate for WriteReq accesses
system.cpu.dcache.WriteReq_miss_rate::total     0.174197                       # miss rate for WriteReq accesses
system.cpu.dcache.demand_miss_rate::cpu.data     0.039209                       # miss rate for demand accesses
system.cpu.dcache.demand_miss_rate::total     0.039209                       # miss rate for demand accesses
system.cpu.dcache.overall_miss_rate::cpu.data     0.039209                       # miss rate for overall accesses
system.cpu.dcache.overall_miss_rate::total     0.039209                       # miss rate for overall accesses
system.cpu.dcache.ReadReq_avg_miss_latency::cpu.data 19466.838515                       # average ReadReq miss latency
system.cpu.dcache.ReadReq_avg_miss_latency::total 19466.838515                       # average ReadReq miss latency
system.cpu.dcache.WriteReq_avg_miss_latency::cpu.data 23607.115065                       # average WriteReq miss latency
system.cpu.dcache.WriteReq_avg_miss_latency::total 23607.115065                       # average WriteReq miss latency
system.cpu.dcache.demand_avg_miss_latency::cpu.data 23407.125900                       # average overall miss latency
system.cpu.dcache.demand_avg_miss_latency::total 23407.125900                       # average overall miss latency
system.cpu.dcache.overall_avg_miss_latency::cpu.data 23407.125900                       # average overall miss latency
system.cpu.dcache.overall_avg_miss_latency::total 23407.125900                       # average overall miss latency
system.cpu.dcache.blocked_cycles::no_mshrs            0                       # number of cycles access was blocked
system.cpu.dcache.blocked_cycles::no_targets            0                       # number of cycles access was blocked
system.cpu.dcache.blocked::no_mshrs                 0                       # number of cycles access was blocked
system.cpu.dcache.blocked::no_targets               0                       # number of cycles access was blocked
system.cpu.dcache.avg_blocked_cycles::no_mshrs          nan                       # average number of cycles each access was blocked
system.cpu.dcache.avg_blocked_cycles::no_targets          nan                       # average number of cycles each access was blocked
system.cpu.dcache.writebacks::writebacks      1276747                       # number of writebacks
system.cpu.dcache.writebacks::total           1276747                       # number of writebacks
system.cpu.dcache.ReadReq_mshr_hits::cpu.data           21                       # number of ReadReq MSHR hits
system.cpu.dcache.ReadReq_mshr_hits::total           21                       # number of ReadReq MSHR hits
system.cpu.dcache.WriteReq_mshr_hits::cpu.data        62818                       # number of WriteReq MSHR hits
system.cpu.dcache.WriteReq_mshr_hits::total        62818                       # number of WriteReq MSHR hits
system.cpu.dcache.demand_mshr_hits::cpu.data        62839                       # number of demand (read+write) MSHR hits
system.cpu.dcache.demand_mshr_hits::total        62839                       # number of demand (read+write) MSHR hits
system.cpu.dcache.overall_mshr_hits::cpu.data        62839                       # number of overall MSHR hits
system.cpu.dcache.overall_mshr_hits::total        62839                       # number of overall MSHR hits
system.cpu.dcache.ReadReq_mshr_misses::cpu.data        64827                       # number of ReadReq MSHR misses
system.cpu.dcache.ReadReq_mshr_misses::total        64827                       # number of ReadReq MSHR misses
system.cpu.dcache.WriteReq_mshr_misses::cpu.data      1214850                       # number of WriteReq MSHR misses
system.cpu.dcache.WriteReq_mshr_misses::total      1214850                       # number of WriteReq MSHR misses
system.cpu.dcache.demand_mshr_misses::cpu.data      1279677                       # number of demand (read+write) MSHR misses
system.cpu.dcache.demand_mshr_misses::total      1279677                       # number of demand (read+write) MSHR misses
system.cpu.dcache.overall_mshr_misses::cpu.data      1279677                       # number of overall MSHR misses
system.cpu.dcache.overall_mshr_misses::total      1279677                       # number of overall MSHR misses
system.cpu.dcache.ReadReq_mshr_miss_latency::cpu.data   1173889985                       # number of ReadReq MSHR miss cycles
system.cpu.dcache.ReadReq_mshr_miss_latency::total   1173889985                       # number of ReadReq MSHR miss cycles
system.cpu.dcache.WriteReq_mshr_miss_latency::cpu.data  23958353190                       # number of WriteReq MSHR miss cycles
system.cpu.dcache.WriteReq_mshr_miss_latency::total  23958353190                       # number of WriteReq MSHR miss cycles
system.cpu.dcache.demand_mshr_miss_latency::cpu.data  25132243175                       # number of demand (read+write) MSHR miss cycles
system.cpu.dcache.demand_mshr_miss_latency::total  25132243175                       # number of demand (read+write) MSHR miss cycles
system.cpu.dcache.overall_mshr_miss_latency::cpu.data  25132243175                       # number of overall MSHR miss cycles
system.cpu.dcache.overall_mshr_miss_latency::total  25132243175                       # number of overall MSHR miss cycles
system.cpu.dcache.ReadReq_mshr_miss_rate::cpu.data     0.002409                       # mshr miss rate for ReadReq accesses
system.cpu.dcache.ReadReq_mshr_miss_rate::total     0.002409                       # mshr miss rate for ReadReq accesses
system.cpu.dcache.WriteReq_mshr_miss_rate::cpu.data     0.165632                       # mshr miss rate for WriteReq accesses
system.cpu.dcache.WriteReq_mshr_miss_rate::total     0.165632                       # mshr miss rate for WriteReq accesses
system.cpu.dcache.demand_mshr_miss_rate::cpu.data     0.037374                       # mshr miss rate for demand accesses
system.cpu.dcache.demand_mshr_miss_rate::total     0.037374                       # mshr miss rate for demand accesses
system.cpu.dcache.overall_mshr_miss_rate::cpu.data     0.037374                       # mshr miss rate for overall accesses
system.cpu.dcache.overall_mshr_miss_rate::total     0.037374                       # mshr miss rate for overall accesses
system.cpu.dcache.ReadReq_avg_mshr_miss_latency::cpu.data 18108.041171                       # average ReadReq mshr miss latency
system.cpu.dcache.ReadReq_avg_mshr_miss_latency::total 18108.041171                       # average ReadReq mshr miss latency
system.cpu.dcache.WriteReq_avg_mshr_miss_latency::cpu.data 19721.243931                       # average WriteReq mshr miss latency
system.cpu.dcache.WriteReq_avg_mshr_miss_latency::total 19721.243931                       # average WriteReq mshr miss latency
system.cpu.dcache.demand_avg_mshr_miss_latency::cpu.data 19639.520891                       # average overall mshr miss latency
system.cpu.dcache.demand_avg_mshr_miss_latency::total 19639.520891                       # average overall mshr miss latency
system.cpu.dcache.overall_avg_mshr_miss_latency::cpu.data 19639.520891                       # average overall mshr miss latency
system.cpu.dcache.overall_avg_mshr_miss_latency::total 19639.520891                       # average overall mshr miss latency
system.cpu.icache.tags.pwrStateResidencyTicks::UNDEFINED  89706666251                       # Cumulative time (in ticks) in various power states
system.cpu.icache.tags.replacements               734                       # number of replacements
system.cpu.icache.tags.tagsinuse           494.692344                       # Cycle average of tags in use
system.cpu.icache.tags.total_refs            18311989                       # Total number of references to valid blocks.
system.cpu.icache.tags.sampled_refs              1239                       # Sample count of references to valid blocks.
system.cpu.icache.tags.avg_refs          14779.652139                       # Average number of references to valid blocks.
system.cpu.icache.tags.warmup_cycle                 0                       # Cycle when the warmup percentage was hit.
system.cpu.icache.tags.occ_blocks::cpu.inst   494.692344                       # Average occupied blocks per requestor
system.cpu.icache.tags.occ_percent::cpu.inst     0.966196                       # Average percentage of cache occupancy
system.cpu.icache.tags.occ_percent::total     0.966196                       # Average percentage of cache occupancy
system.cpu.icache.tags.occ_task_id_blocks::1024          505                       # Occupied blocks per task id
system.cpu.icache.tags.age_task_id_blocks_1024::0           95                       # Occupied blocks per task id
system.cpu.icache.tags.age_task_id_blocks_1024::1          136                       # Occupied blocks per task id
system.cpu.icache.tags.age_task_id_blocks_1024::4          274                       # Occupied blocks per task id
system.cpu.icache.tags.occ_task_id_percent::1024     0.986328                       # Percentage of cache occupancy per task id
system.cpu.icache.tags.tag_accesses          36627697                       # Number of tag accesses
system.cpu.icache.tags.data_accesses         36627697                       # Number of data accesses
system.cpu.icache.pwrStateResidencyTicks::UNDEFINED  89706666251                       # Cumulative time (in ticks) in various power states
system.cpu.icache.ReadReq_hits::cpu.inst     18311989                       # number of ReadReq hits
system.cpu.icache.ReadReq_hits::total        18311989                       # number of ReadReq hits
system.cpu.icache.demand_hits::cpu.inst      18311989                       # number of demand (read+write) hits
system.cpu.icache.demand_hits::total         18311989                       # number of demand (read+write) hits
system.cpu.icache.overall_hits::cpu.inst     18311989                       # number of overall hits
system.cpu.icache.overall_hits::total        18311989                       # number of overall hits
system.cpu.icache.ReadReq_misses::cpu.inst         1240                       # number of ReadReq misses
system.cpu.icache.ReadReq_misses::total          1240                       # number of ReadReq misses
system.cpu.icache.demand_misses::cpu.inst         1240                       # number of demand (read+write) misses
system.cpu.icache.demand_misses::total           1240                       # number of demand (read+write) misses
system.cpu.icache.overall_misses::cpu.inst         1240                       # number of overall misses
system.cpu.icache.overall_misses::total          1240                       # number of overall misses
system.cpu.icache.ReadReq_miss_latency::cpu.inst    101546081                       # number of ReadReq miss cycles
system.cpu.icache.ReadReq_miss_latency::total    101546081                       # number of ReadReq miss cycles
system.cpu.icache.demand_miss_latency::cpu.inst    101546081                       # number of demand (read+write) miss cycles
system.cpu.icache.demand_miss_latency::total    101546081                       # number of demand (read+write) miss cycles
system.cpu.icache.overall_miss_latency::cpu.inst    101546081                       # number of overall miss cycles
system.cpu.icache.overall_miss_latency::total    101546081                       # number of overall miss cycles
system.cpu.icache.ReadReq_accesses::cpu.inst     18313229                       # number of ReadReq accesses(hits+misses)
system.cpu.icache.ReadReq_accesses::total     18313229                       # number of ReadReq accesses(hits+misses)
system.cpu.icache.demand_accesses::cpu.inst     18313229                       # number of demand (read+write) accesses
system.cpu.icache.demand_accesses::total     18313229                       # number of demand (read+write) accesses
system.cpu.icache.overall_accesses::cpu.inst     18313229                       # number of overall (read+write) accesses
system.cpu.icache.overall_accesses::total     18313229                       # number of overall (read+write) accesses
system.cpu.icache.ReadReq_miss_rate::cpu.inst     0.000068                       # miss rate for ReadReq accesses
system.cpu.icache.ReadReq_miss_rate::total     0.000068                       # miss rate for ReadReq accesses
system.cpu.icache.demand_miss_rate::cpu.inst     0.000068                       # miss rate for demand accesses
system.cpu.icache.demand_miss_rate::total     0.000068                       # miss rate for demand accesses
system.cpu.icache.overall_miss_rate::cpu.inst     0.000068                       # miss rate for overall accesses
system.cpu.icache.overall_miss_rate::total     0.000068                       # miss rate for overall accesses
system.cpu.icache.ReadReq_avg_miss_latency::cpu.inst 81892.000806                       # average ReadReq miss latency
system.cpu.icache.ReadReq_avg_miss_latency::total 81892.000806                       # average ReadReq miss latency
system.cpu.icache.demand_avg_miss_latency::cpu.inst 81892.000806                       # average overall miss latency
system.cpu.icache.demand_avg_miss_latency::total 81892.000806                       # average overall miss latency
system.cpu.icache.overall_avg_miss_latency::cpu.inst 81892.000806                       # average overall miss latency
system.cpu.icache.overall_avg_miss_latency::total 81892.000806                       # average overall miss latency
system.cpu.icache.blocked_cycles::no_mshrs            0                       # number of cycles access was blocked
system.cpu.icache.blocked_cycles::no_targets            0                       # number of cycles access was blocked
system.cpu.icache.blocked::no_mshrs                 0                       # number of cycles access was blocked
system.cpu.icache.blocked::no_targets               0                       # number of cycles access was blocked
system.cpu.icache.avg_blocked_cycles::no_mshrs          nan                       # average number of cycles each access was blocked
system.cpu.icache.avg_blocked_cycles::no_targets          nan                       # average number of cycles each access was blocked
system.cpu.icache.ReadReq_mshr_misses::cpu.inst         1240                       # number of ReadReq MSHR misses
system.cpu.icache.ReadReq_mshr_misses::total         1240                       # number of ReadReq MSHR misses
system.cpu.icache.demand_mshr_misses::cpu.inst         1240                       # number of demand (read+write) MSHR misses
system.cpu.icache.demand_mshr_misses::total         1240                       # number of demand (read+write) MSHR misses
system.cpu.icache.overall_mshr_misses::cpu.inst         1240                       # number of overall MSHR misses
system.cpu.icache.overall_mshr_misses::total         1240                       # number of overall MSHR misses
system.cpu.icache.ReadReq_mshr_miss_latency::cpu.inst     99893255                       # number of ReadReq MSHR miss cycles
system.cpu.icache.ReadReq_mshr_miss_latency::total     99893255                       # number of ReadReq MSHR miss cycles
system.cpu.icache.demand_mshr_miss_latency::cpu.inst     99893255                       # number of demand (read+write) MSHR miss cycles
system.cpu.icache.demand_mshr_miss_latency::total     99893255                       # number of demand (read+write) MSHR miss cycles
system.cpu.icache.overall_mshr_miss_latency::cpu.inst     99893255                       # number of overall MSHR miss cycles
system.cpu.icache.overall_mshr_miss_latency::total     99893255                       # number of overall MSHR miss cycles
system.cpu.icache.ReadReq_mshr_miss_rate::cpu.inst     0.000068                       # mshr miss rate for ReadReq accesses
system.cpu.icache.ReadReq_mshr_miss_rate::total     0.000068                       # mshr miss rate for ReadReq accesses
system.cpu.icache.demand_mshr_miss_rate::cpu.inst     0.000068                       # mshr miss rate for demand accesses
system.cpu.icache.demand_mshr_miss_rate::total     0.000068                       # mshr miss rate for demand accesses
system.cpu.icache.overall_mshr_miss_rate::cpu.inst     0.000068                       # mshr miss rate for overall accesses
system.cpu.icache.overall_mshr_miss_rate::total     0.000068                       # mshr miss rate for overall accesses
system.cpu.icache.ReadReq_avg_mshr_miss_latency::cpu.inst 80559.076613                       # average ReadReq mshr miss latency
system.cpu.icache.ReadReq_avg_mshr_miss_latency::total 80559.076613                       # average ReadReq mshr miss latency
system.cpu.icache.demand_avg_mshr_miss_latency::cpu.inst 80559.076613                       # average overall mshr miss latency
system.cpu.icache.demand_avg_mshr_miss_latency::total 80559.076613                       # average overall mshr miss latency
system.cpu.icache.overall_avg_mshr_miss_latency::cpu.inst 80559.076613                       # average overall mshr miss latency
system.cpu.icache.overall_avg_mshr_miss_latency::total 80559.076613                       # average overall mshr miss latency
system.l2bus.snoop_filter.tot_requests        2560304                       # Total number of requests made to the snoop filter.
system.l2bus.snoop_filter.hit_single_requests      1279389                       # Number of requests hitting in the snoop filter with a single holder of the requested data.
system.l2bus.snoop_filter.hit_multi_requests            5                       # Number of requests hitting in the snoop filter with multiple (>1) holders of the requested data.
system.l2bus.snoop_filter.tot_snoops              232                       # Total number of snoops made to the snoop filter.
system.l2bus.snoop_filter.hit_single_snoops          232                       # Number of snoops hitting in the snoop filter with a single holder of the requested data.
system.l2bus.snoop_filter.hit_multi_snoops            0                       # Number of snoops hitting in the snoop filter with multiple (>1) holders of the requested data.
system.l2bus.pwrStateResidencyTicks::UNDEFINED  89706666251                       # Cumulative time (in ticks) in various power states
system.l2bus.trans_dist::ReadResp               66066                       # Transaction distribution
system.l2bus.trans_dist::WritebackDirty       1277250                       # Transaction distribution
system.l2bus.trans_dist::CleanEvict              4755                       # Transaction distribution
system.l2bus.trans_dist::ReadExReq            1214850                       # Transaction distribution
system.l2bus.trans_dist::ReadExResp           1214850                       # Transaction distribution
system.l2bus.trans_dist::ReadSharedReq          66067                       # Transaction distribution
system.l2bus.pkt_count_system.cpu.icache.mem_side::system.l2cache.cpu_side         3213                       # Packet count per connected master and slave (bytes)
system.l2bus.pkt_count_system.cpu.dcache.mem_side::system.l2cache.cpu_side      3838007                       # Packet count per connected master and slave (bytes)
system.l2bus.pkt_count::total                 3841220                       # Packet count per connected master and slave (bytes)
system.l2bus.pkt_size_system.cpu.icache.mem_side::system.l2cache.cpu_side        79296                       # Cumulative packet size per connected master and slave (bytes)
system.l2bus.pkt_size_system.cpu.dcache.mem_side::system.l2cache.cpu_side    163611136                       # Cumulative packet size per connected master and slave (bytes)
system.l2bus.pkt_size::total                163690432                       # Cumulative packet size per connected master and slave (bytes)
system.l2bus.snoops                              2618                       # Total snoops (count)
system.l2bus.snoopTraffic                       32192                       # Total snoop traffic (bytes)
system.l2bus.snoop_fanout::samples            1283535                       # Request fanout histogram
system.l2bus.snoop_fanout::mean              0.000186                       # Request fanout histogram
system.l2bus.snoop_fanout::stdev             0.013644                       # Request fanout histogram
system.l2bus.snoop_fanout::underflows               0      0.00%      0.00% # Request fanout histogram
system.l2bus.snoop_fanout::0                  1283296     99.98%     99.98% # Request fanout histogram
system.l2bus.snoop_fanout::1                      239      0.02%    100.00% # Request fanout histogram
system.l2bus.snoop_fanout::2                        0      0.00%    100.00% # Request fanout histogram
system.l2bus.snoop_fanout::overflows                0      0.00%    100.00% # Request fanout histogram
system.l2bus.snoop_fanout::min_value                0                       # Request fanout histogram
system.l2bus.snoop_fanout::max_value                1                       # Request fanout histogram
system.l2bus.snoop_fanout::total              1283535                       # Request fanout histogram
system.l2bus.reqLayer0.occupancy           3410903266                       # Layer occupancy (ticks)
system.l2bus.reqLayer0.utilization                3.8                       # Layer utilization (%)
system.l2bus.respLayer0.occupancy             2479239                       # Layer occupancy (ticks)
system.l2bus.respLayer0.utilization               0.0                       # Layer utilization (%)
system.l2bus.respLayer1.occupancy          2560633677                       # Layer occupancy (ticks)
system.l2bus.respLayer1.utilization               2.9                       # Layer utilization (%)
system.l2cache.tags.pwrStateResidencyTicks::UNDEFINED  89706666251                       # Cumulative time (in ticks) in various power states
system.l2cache.tags.replacements                 2618                       # number of replacements
system.l2cache.tags.tagsinuse            55936.872849                       # Cycle average of tags in use
system.l2cache.tags.total_refs                2494114                       # Total number of references to valid blocks.
system.l2cache.tags.sampled_refs                66086                       # Sample count of references to valid blocks.
system.l2cache.tags.avg_refs                37.740429                       # Average number of references to valid blocks.
system.l2cache.tags.warmup_cycle                    0                       # Cycle when the warmup percentage was hit.
system.l2cache.tags.occ_blocks::cpu.inst   645.954250                       # Average occupied blocks per requestor
system.l2cache.tags.occ_blocks::cpu.data 55290.918599                       # Average occupied blocks per requestor
system.l2cache.tags.occ_percent::cpu.inst     0.009856                       # Average percentage of cache occupancy
system.l2cache.tags.occ_percent::cpu.data     0.843672                       # Average percentage of cache occupancy
system.l2cache.tags.occ_percent::total       0.853529                       # Average percentage of cache occupancy
system.l2cache.tags.occ_task_id_blocks::1024        63468                       # Occupied blocks per task id
system.l2cache.tags.age_task_id_blocks_1024::0          104                       # Occupied blocks per task id
system.l2cache.tags.age_task_id_blocks_1024::1          241                       # Occupied blocks per task id
system.l2cache.tags.age_task_id_blocks_1024::4        63123                       # Occupied blocks per task id
system.l2cache.tags.occ_task_id_percent::1024     0.968445                       # Percentage of cache occupancy per task id
system.l2cache.tags.tag_accesses             20548478                       # Number of tag accesses
system.l2cache.tags.data_accesses            20548478                       # Number of data accesses
system.l2cache.pwrStateResidencyTicks::UNDEFINED  89706666251                       # Cumulative time (in ticks) in various power states
system.l2cache.WritebackDirty_hits::writebacks      1276747                       # number of WritebackDirty hits
system.l2cache.WritebackDirty_hits::total      1276747                       # number of WritebackDirty hits
system.l2cache.ReadExReq_hits::cpu.data       1151847                       # number of ReadExReq hits
system.l2cache.ReadExReq_hits::total          1151847                       # number of ReadExReq hits
system.l2cache.ReadSharedReq_hits::cpu.inst           85                       # number of ReadSharedReq hits
system.l2cache.ReadSharedReq_hits::cpu.data        62898                       # number of ReadSharedReq hits
system.l2cache.ReadSharedReq_hits::total        62983                       # number of ReadSharedReq hits
system.l2cache.demand_hits::cpu.inst               85                       # number of demand (read+write) hits
system.l2cache.demand_hits::cpu.data          1214745                       # number of demand (read+write) hits
system.l2cache.demand_hits::total             1214830                       # number of demand (read+write) hits
system.l2cache.overall_hits::cpu.inst              85                       # number of overall hits
system.l2cache.overall_hits::cpu.data         1214745                       # number of overall hits
system.l2cache.overall_hits::total            1214830                       # number of overall hits
system.l2cache.ReadExReq_misses::cpu.data        63003                       # number of ReadExReq misses
system.l2cache.ReadExReq_misses::total          63003                       # number of ReadExReq misses
system.l2cache.ReadSharedReq_misses::cpu.inst         1155                       # number of ReadSharedReq misses
system.l2cache.ReadSharedReq_misses::cpu.data         1929                       # number of ReadSharedReq misses
system.l2cache.ReadSharedReq_misses::total         3084                       # number of ReadSharedReq misses
system.l2cache.demand_misses::cpu.inst           1155                       # number of demand (read+write) misses
system.l2cache.demand_misses::cpu.data          64932                       # number of demand (read+write) misses
system.l2cache.demand_misses::total             66087                       # number of demand (read+write) misses
system.l2cache.overall_misses::cpu.inst          1155                       # number of overall misses
system.l2cache.overall_misses::cpu.data         64932                       # number of overall misses
system.l2cache.overall_misses::total            66087                       # number of overall misses
system.l2cache.ReadExReq_miss_latency::cpu.data   5393510741                       # number of ReadExReq miss cycles
system.l2cache.ReadExReq_miss_latency::total   5393510741                       # number of ReadExReq miss cycles
system.l2cache.ReadSharedReq_miss_latency::cpu.inst     96218085                       # number of ReadSharedReq miss cycles
system.l2cache.ReadSharedReq_miss_latency::cpu.data    163148200                       # number of ReadSharedReq miss cycles
system.l2cache.ReadSharedReq_miss_latency::total    259366285                       # number of ReadSharedReq miss cycles
system.l2cache.demand_miss_latency::cpu.inst     96218085                       # number of demand (read+write) miss cycles
system.l2cache.demand_miss_latency::cpu.data   5556658941                       # number of demand (read+write) miss cycles
system.l2cache.demand_miss_latency::total   5652877026                       # number of demand (read+write) miss cycles
system.l2cache.overall_miss_latency::cpu.inst     96218085                       # number of overall miss cycles
system.l2cache.overall_miss_latency::cpu.data   5556658941                       # number of overall miss cycles
system.l2cache.overall_miss_latency::total   5652877026                       # number of overall miss cycles
system.l2cache.WritebackDirty_accesses::writebacks      1276747                       # number of WritebackDirty accesses(hits+misses)
system.l2cache.WritebackDirty_accesses::total      1276747                       # number of WritebackDirty accesses(hits+misses)
system.l2cache.ReadExReq_accesses::cpu.data      1214850                       # number of ReadExReq accesses(hits+misses)
system.l2cache.ReadExReq_accesses::total      1214850                       # number of ReadExReq accesses(hits+misses)
system.l2cache.ReadSharedReq_accesses::cpu.inst         1240                       # number of ReadSharedReq accesses(hits+misses)
system.l2cache.ReadSharedReq_accesses::cpu.data        64827                       # number of ReadSharedReq accesses(hits+misses)
system.l2cache.ReadSharedReq_accesses::total        66067                       # number of ReadSharedReq accesses(hits+misses)
system.l2cache.demand_accesses::cpu.inst         1240                       # number of demand (read+write) accesses
system.l2cache.demand_accesses::cpu.data      1279677                       # number of demand (read+write) accesses
system.l2cache.demand_accesses::total         1280917                       # number of demand (read+write) accesses
system.l2cache.overall_accesses::cpu.inst         1240                       # number of overall (read+write) accesses
system.l2cache.overall_accesses::cpu.data      1279677                       # number of overall (read+write) accesses
system.l2cache.overall_accesses::total        1280917                       # number of overall (read+write) accesses
system.l2cache.ReadExReq_miss_rate::cpu.data     0.051861                       # miss rate for ReadExReq accesses
system.l2cache.ReadExReq_miss_rate::total     0.051861                       # miss rate for ReadExReq accesses
system.l2cache.ReadSharedReq_miss_rate::cpu.inst     0.931452                       # miss rate for ReadSharedReq accesses
system.l2cache.ReadSharedReq_miss_rate::cpu.data     0.029756                       # miss rate for ReadSharedReq accesses
system.l2cache.ReadSharedReq_miss_rate::total     0.046680                       # miss rate for ReadSharedReq accesses
system.l2cache.demand_miss_rate::cpu.inst     0.931452                       # miss rate for demand accesses
system.l2cache.demand_miss_rate::cpu.data     0.050741                       # miss rate for demand accesses
system.l2cache.demand_miss_rate::total       0.051594                       # miss rate for demand accesses
system.l2cache.overall_miss_rate::cpu.inst     0.931452                       # miss rate for overall accesses
system.l2cache.overall_miss_rate::cpu.data     0.050741                       # miss rate for overall accesses
system.l2cache.overall_miss_rate::total      0.051594                       # miss rate for overall accesses
system.l2cache.ReadExReq_avg_miss_latency::cpu.data 85607.205070                       # average ReadExReq miss latency
system.l2cache.ReadExReq_avg_miss_latency::total 85607.205070                       # average ReadExReq miss latency
system.l2cache.ReadSharedReq_avg_miss_latency::cpu.inst 83305.701299                       # average ReadSharedReq miss latency
system.l2cache.ReadSharedReq_avg_miss_latency::cpu.data 84576.568170                       # average ReadSharedReq miss latency
system.l2cache.ReadSharedReq_avg_miss_latency::total 84100.611219                       # average ReadSharedReq miss latency
system.l2cache.demand_avg_miss_latency::cpu.inst 83305.701299                       # average overall miss latency
system.l2cache.demand_avg_miss_latency::cpu.data 85576.586906                       # average overall miss latency
system.l2cache.demand_avg_miss_latency::total 85536.898724                       # average overall miss latency
system.l2cache.overall_avg_miss_latency::cpu.inst 83305.701299                       # average overall miss latency
system.l2cache.overall_avg_miss_latency::cpu.data 85576.586906                       # average overall miss latency
system.l2cache.overall_avg_miss_latency::total 85536.898724                       # average overall miss latency
system.l2cache.blocked_cycles::no_mshrs             0                       # number of cycles access was blocked
system.l2cache.blocked_cycles::no_targets            0                       # number of cycles access was blocked
system.l2cache.blocked::no_mshrs                    0                       # number of cycles access was blocked
system.l2cache.blocked::no_targets                  0                       # number of cycles access was blocked
system.l2cache.avg_blocked_cycles::no_mshrs          nan                       # average number of cycles each access was blocked
system.l2cache.avg_blocked_cycles::no_targets          nan                       # average number of cycles each access was blocked
system.l2cache.writebacks::writebacks             503                       # number of writebacks
system.l2cache.writebacks::total                  503                       # number of writebacks
system.l2cache.CleanEvict_mshr_misses::writebacks           98                       # number of CleanEvict MSHR misses
system.l2cache.CleanEvict_mshr_misses::total           98                       # number of CleanEvict MSHR misses
system.l2cache.ReadExReq_mshr_misses::cpu.data        63003                       # number of ReadExReq MSHR misses
system.l2cache.ReadExReq_mshr_misses::total        63003                       # number of ReadExReq MSHR misses
system.l2cache.ReadSharedReq_mshr_misses::cpu.inst         1155                       # number of ReadSharedReq MSHR misses
system.l2cache.ReadSharedReq_mshr_misses::cpu.data         1929                       # number of ReadSharedReq MSHR misses
system.l2cache.ReadSharedReq_mshr_misses::total         3084                       # number of ReadSharedReq MSHR misses
system.l2cache.demand_mshr_misses::cpu.inst         1155                       # number of demand (read+write) MSHR misses
system.l2cache.demand_mshr_misses::cpu.data        64932                       # number of demand (read+write) MSHR misses
system.l2cache.demand_mshr_misses::total        66087                       # number of demand (read+write) MSHR misses
system.l2cache.overall_mshr_misses::cpu.inst         1155                       # number of overall MSHR misses
system.l2cache.overall_mshr_misses::cpu.data        64932                       # number of overall MSHR misses
system.l2cache.overall_mshr_misses::total        66087                       # number of overall MSHR misses
system.l2cache.ReadExReq_mshr_miss_latency::cpu.data   4553050721                       # number of ReadExReq MSHR miss cycles
system.l2cache.ReadExReq_mshr_miss_latency::total   4553050721                       # number of ReadExReq MSHR miss cycles
system.l2cache.ReadSharedReq_mshr_miss_latency::cpu.inst     80823725                       # number of ReadSharedReq MSHR miss cycles
system.l2cache.ReadSharedReq_mshr_miss_latency::cpu.data    137415340                       # number of ReadSharedReq MSHR miss cycles
system.l2cache.ReadSharedReq_mshr_miss_latency::total    218239065                       # number of ReadSharedReq MSHR miss cycles
system.l2cache.demand_mshr_miss_latency::cpu.inst     80823725                       # number of demand (read+write) MSHR miss cycles
system.l2cache.demand_mshr_miss_latency::cpu.data   4690466061                       # number of demand (read+write) MSHR miss cycles
system.l2cache.demand_mshr_miss_latency::total   4771289786                       # number of demand (read+write) MSHR miss cycles
system.l2cache.overall_mshr_miss_latency::cpu.inst     80823725                       # number of overall MSHR miss cycles
system.l2cache.overall_mshr_miss_latency::cpu.data   4690466061                       # number of overall MSHR miss cycles
system.l2cache.overall_mshr_miss_latency::total   4771289786                       # number of overall MSHR miss cycles
system.l2cache.CleanEvict_mshr_miss_rate::writebacks          inf                       # mshr miss rate for CleanEvict accesses
system.l2cache.CleanEvict_mshr_miss_rate::total          inf                       # mshr miss rate for CleanEvict accesses
system.l2cache.ReadExReq_mshr_miss_rate::cpu.data     0.051861                       # mshr miss rate for ReadExReq accesses
system.l2cache.ReadExReq_mshr_miss_rate::total     0.051861                       # mshr miss rate for ReadExReq accesses
system.l2cache.ReadSharedReq_mshr_miss_rate::cpu.inst     0.931452                       # mshr miss rate for ReadSharedReq accesses
system.l2cache.ReadSharedReq_mshr_miss_rate::cpu.data     0.029756                       # mshr miss rate for ReadSharedReq accesses
system.l2cache.ReadSharedReq_mshr_miss_rate::total     0.046680                       # mshr miss rate for ReadSharedReq accesses
system.l2cache.demand_mshr_miss_rate::cpu.inst     0.931452                       # mshr miss rate for demand accesses
system.l2cache.demand_mshr_miss_rate::cpu.data     0.050741                       # mshr miss rate for demand accesses
system.l2cache.demand_mshr_miss_rate::total     0.051594                       # mshr miss rate for demand accesses
system.l2cache.overall_mshr_miss_rate::cpu.inst     0.931452                       # mshr miss rate for overall accesses
system.l2cache.overall_mshr_miss_rate::cpu.data     0.050741                       # mshr miss rate for overall accesses
system.l2cache.overall_mshr_miss_rate::total     0.051594                       # mshr miss rate for overall accesses
system.l2cache.ReadExReq_avg_mshr_miss_latency::cpu.data 72267.205070                       # average ReadExReq mshr miss latency
system.l2cache.ReadExReq_avg_mshr_miss_latency::total 72267.205070                       # average ReadExReq mshr miss latency
system.l2cache.ReadSharedReq_avg_mshr_miss_latency::cpu.inst 69977.251082                       # average ReadSharedReq mshr miss latency
system.l2cache.ReadSharedReq_avg_mshr_miss_latency::cpu.data 71236.568170                       # average ReadSharedReq mshr miss latency
system.l2cache.ReadSharedReq_avg_mshr_miss_latency::total 70764.936770                       # average ReadSharedReq mshr miss latency
system.l2cache.demand_avg_mshr_miss_latency::cpu.inst 69977.251082                       # average overall mshr miss latency
system.l2cache.demand_avg_mshr_miss_latency::cpu.data 72236.586906                       # average overall mshr miss latency
system.l2cache.demand_avg_mshr_miss_latency::total 72197.100580                       # average overall mshr miss latency
system.l2cache.overall_avg_mshr_miss_latency::cpu.inst 69977.251082                       # average overall mshr miss latency
system.l2cache.overall_avg_mshr_miss_latency::cpu.data 72236.586906                       # average overall mshr miss latency
system.l2cache.overall_avg_mshr_miss_latency::total 72197.100580                       # average overall mshr miss latency
system.membus.snoop_filter.tot_requests         68569                       # Total number of requests made to the snoop filter.
system.membus.snoop_filter.hit_single_requests         2483                       # Number of requests hitting in the snoop filter with a single holder of the requested data.
system.membus.snoop_filter.hit_multi_requests            0                       # Number of requests hitting in the snoop filter with multiple (>1) holders of the requested data.
system.membus.snoop_filter.tot_snoops               0                       # Total number of snoops made to the snoop filter.
system.membus.snoop_filter.hit_single_snoops            0                       # Number of snoops hitting in the snoop filter with a single holder of the requested data.
system.membus.snoop_filter.hit_multi_snoops            0                       # Number of snoops hitting in the snoop filter with multiple (>1) holders of the requested data.
system.membus.pwrStateResidencyTicks::UNDEFINED  89706666251                       # Cumulative time (in ticks) in various power states
system.membus.trans_dist::ReadResp               3083                       # Transaction distribution
system.membus.trans_dist::WritebackDirty          503                       # Transaction distribution
system.membus.trans_dist::CleanEvict             1980                       # Transaction distribution
system.membus.trans_dist::ReadExReq             63003                       # Transaction distribution
system.membus.trans_dist::ReadExResp            63003                       # Transaction distribution
system.membus.trans_dist::ReadSharedReq          3083                       # Transaction distribution
system.membus.pkt_count_system.l2cache.mem_side::system.mem_ctrl.port       134655                       # Packet count per connected master and slave (bytes)
system.membus.pkt_count_system.l2cache.mem_side::total       134655                       # Packet count per connected master and slave (bytes)
system.membus.pkt_count::total                 134655                       # Packet count per connected master and slave (bytes)
system.membus.pkt_size_system.l2cache.mem_side::system.mem_ctrl.port      4261696                       # Cumulative packet size per connected master and slave (bytes)
system.membus.pkt_size_system.l2cache.mem_side::total      4261696                       # Cumulative packet size per connected master and slave (bytes)
system.membus.pkt_size::total                 4261696                       # Cumulative packet size per connected master and slave (bytes)
system.membus.snoops                                0                       # Total snoops (count)
system.membus.snoopTraffic                          0                       # Total snoop traffic (bytes)
system.membus.snoop_fanout::samples             66086                       # Request fanout histogram
system.membus.snoop_fanout::mean                    0                       # Request fanout histogram
system.membus.snoop_fanout::stdev                   0                       # Request fanout histogram
system.membus.snoop_fanout::underflows              0      0.00%      0.00% # Request fanout histogram
system.membus.snoop_fanout::0                   66086    100.00%    100.00% # Request fanout histogram
system.membus.snoop_fanout::1                       0      0.00%    100.00% # Request fanout histogram
system.membus.snoop_fanout::overflows               0      0.00%    100.00% # Request fanout histogram
system.membus.snoop_fanout::min_value               0                       # Request fanout histogram
system.membus.snoop_fanout::max_value               0                       # Request fanout histogram
system.membus.snoop_fanout::total               66086                       # Request fanout histogram
system.membus.reqLayer2.occupancy            47077527                       # Layer occupancy (ticks)
system.membus.reqLayer2.utilization               0.1                       # Layer utilization (%)
system.membus.respLayer0.occupancy          252295917                       # Layer occupancy (ticks)
system.membus.respLayer0.utilization              0.3                       # Layer utilization (%)

---------- End Simulation Statistics   ----------
