
---------- Begin Simulation Statistics ----------
sim_seconds                                  0.068090                       # Number of seconds simulated
sim_ticks                                 68090142500                       # Number of ticks simulated
final_tick                                68090142500                       # Number of ticks from beginning of simulation (restored from checkpoints and never reset)
sim_freq                                 1000000000000                       # Frequency of simulated ticks
host_inst_rate                                 239101                       # Simulator instruction rate (inst/s)
host_op_rate                                   411265                       # Simulator op (including micro ops) rate (op/s)
host_tick_rate                              341306365                       # Simulator tick rate (ticks/s)
host_mem_usage                                 685836                       # Number of bytes of host memory used
host_seconds                                   199.50                       # Real time elapsed on the host
sim_insts                                    47700244                       # Number of instructions simulated
sim_ops                                      82046706                       # Number of ops (including micro ops) simulated
system.clk_domain.voltage_domain.voltage            1                       # Voltage in Volts
system.clk_domain.clock                           500                       # Clock period in ticks
system.mem_ctrl.pwrStateResidencyTicks::UNDEFINED  68090142500                       # Cumulative time (in ticks) in various power states
system.mem_ctrl.bytes_read::cpu.inst            73856                       # Number of bytes read from this memory
system.mem_ctrl.bytes_read::cpu.data          4155648                       # Number of bytes read from this memory
system.mem_ctrl.bytes_read::total             4229504                       # Number of bytes read from this memory
system.mem_ctrl.bytes_inst_read::cpu.inst        73856                       # Number of instructions bytes read from this memory
system.mem_ctrl.bytes_inst_read::total          73856                       # Number of instructions bytes read from this memory
system.mem_ctrl.bytes_written::writebacks        32192                       # Number of bytes written to this memory
system.mem_ctrl.bytes_written::total            32192                       # Number of bytes written to this memory
system.mem_ctrl.num_reads::cpu.inst              1154                       # Number of read requests responded to by this memory
system.mem_ctrl.num_reads::cpu.data             64932                       # Number of read requests responded to by this memory
system.mem_ctrl.num_reads::total                66086                       # Number of read requests responded to by this memory
system.mem_ctrl.num_writes::writebacks            503                       # Number of write requests responded to by this memory
system.mem_ctrl.num_writes::total                 503                       # Number of write requests responded to by this memory
system.mem_ctrl.bw_read::cpu.inst             1084680                       # Total read bandwidth from this memory (bytes/s)
system.mem_ctrl.bw_read::cpu.data            61031566                       # Total read bandwidth from this memory (bytes/s)
system.mem_ctrl.bw_read::total               62116245                       # Total read bandwidth from this memory (bytes/s)
system.mem_ctrl.bw_inst_read::cpu.inst        1084680                       # Instruction read bandwidth from this memory (bytes/s)
system.mem_ctrl.bw_inst_read::total           1084680                       # Instruction read bandwidth from this memory (bytes/s)
system.mem_ctrl.bw_write::writebacks           472785                       # Write bandwidth from this memory (bytes/s)
system.mem_ctrl.bw_write::total                472785                       # Write bandwidth from this memory (bytes/s)
system.mem_ctrl.bw_total::writebacks           472785                       # Total bandwidth to/from this memory (bytes/s)
system.mem_ctrl.bw_total::cpu.inst            1084680                       # Total bandwidth to/from this memory (bytes/s)
system.mem_ctrl.bw_total::cpu.data           61031566                       # Total bandwidth to/from this memory (bytes/s)
system.mem_ctrl.bw_total::total              62589030                       # Total bandwidth to/from this memory (bytes/s)
system.mem_ctrl.readReqs                        66086                       # Number of read requests accepted
system.mem_ctrl.writeReqs                         503                       # Number of write requests accepted
system.mem_ctrl.readBursts                      66086                       # Number of DRAM read bursts, including those serviced by the write queue
system.mem_ctrl.writeBursts                       503                       # Number of DRAM write bursts, including those merged in the write queue
system.mem_ctrl.bytesReadDRAM                 4229440                       # Total number of bytes read from DRAM
system.mem_ctrl.bytesReadWrQ                       64                       # Total number of bytes read from write queue
system.mem_ctrl.bytesWritten                    30272                       # Total number of bytes written to DRAM
system.mem_ctrl.bytesReadSys                  4229504                       # Total read bytes from the system interface side
system.mem_ctrl.bytesWrittenSys                 32192                       # Total written bytes from the system interface side
system.mem_ctrl.servicedByWrQ                       1                       # Number of DRAM read bursts serviced by the write queue
system.mem_ctrl.mergedWrBursts                      0                       # Number of DRAM write bursts merged with an existing one
system.mem_ctrl.neitherReadNorWriteReqs             0                       # Number of requests that are neither read nor write
system.mem_ctrl.perBankRdBursts::0               4216                       # Per bank write bursts
system.mem_ctrl.perBankRdBursts::1               4207                       # Per bank write bursts
system.mem_ctrl.perBankRdBursts::2               4178                       # Per bank write bursts
system.mem_ctrl.perBankRdBursts::3               4125                       # Per bank write bursts
system.mem_ctrl.perBankRdBursts::4               4256                       # Per bank write bursts
system.mem_ctrl.perBankRdBursts::5               4266                       # Per bank write bursts
system.mem_ctrl.perBankRdBursts::6               4263                       # Per bank write bursts
system.mem_ctrl.perBankRdBursts::7               4133                       # Per bank write bursts
system.mem_ctrl.perBankRdBursts::8               4062                       # Per bank write bursts
system.mem_ctrl.perBankRdBursts::9               4143                       # Per bank write bursts
system.mem_ctrl.perBankRdBursts::10              4208                       # Per bank write bursts
system.mem_ctrl.perBankRdBursts::11              4093                       # Per bank write bursts
system.mem_ctrl.perBankRdBursts::12              3879                       # Per bank write bursts
system.mem_ctrl.perBankRdBursts::13              3916                       # Per bank write bursts
system.mem_ctrl.perBankRdBursts::14              3979                       # Per bank write bursts
system.mem_ctrl.perBankRdBursts::15              4161                       # Per bank write bursts
system.mem_ctrl.perBankWrBursts::0                 26                       # Per bank write bursts
system.mem_ctrl.perBankWrBursts::1                 32                       # Per bank write bursts
system.mem_ctrl.perBankWrBursts::2                  0                       # Per bank write bursts
system.mem_ctrl.perBankWrBursts::3                  3                       # Per bank write bursts
system.mem_ctrl.perBankWrBursts::4                 45                       # Per bank write bursts
system.mem_ctrl.perBankWrBursts::5                 84                       # Per bank write bursts
system.mem_ctrl.perBankWrBursts::6                 74                       # Per bank write bursts
system.mem_ctrl.perBankWrBursts::7                 55                       # Per bank write bursts
system.mem_ctrl.perBankWrBursts::8                  8                       # Per bank write bursts
system.mem_ctrl.perBankWrBursts::9                 43                       # Per bank write bursts
system.mem_ctrl.perBankWrBursts::10                61                       # Per bank write bursts
system.mem_ctrl.perBankWrBursts::11                12                       # Per bank write bursts
system.mem_ctrl.perBankWrBursts::12                 2                       # Per bank write bursts
system.mem_ctrl.perBankWrBursts::13                 0                       # Per bank write bursts
system.mem_ctrl.perBankWrBursts::14                25                       # Per bank write bursts
system.mem_ctrl.perBankWrBursts::15                 3                       # Per bank write bursts
system.mem_ctrl.numRdRetry                          0                       # Number of times read queue was full causing retry
system.mem_ctrl.numWrRetry                          0                       # Number of times write queue was full causing retry
system.mem_ctrl.totGap                    68090065000                       # Total gap between requests
system.mem_ctrl.readPktSize::0                      0                       # Read request sizes (log2)
system.mem_ctrl.readPktSize::1                      0                       # Read request sizes (log2)
system.mem_ctrl.readPktSize::2                      0                       # Read request sizes (log2)
system.mem_ctrl.readPktSize::3                      0                       # Read request sizes (log2)
system.mem_ctrl.readPktSize::4                      0                       # Read request sizes (log2)
system.mem_ctrl.readPktSize::5                      0                       # Read request sizes (log2)
system.mem_ctrl.readPktSize::6                  66086                       # Read request sizes (log2)
system.mem_ctrl.writePktSize::0                     0                       # Write request sizes (log2)
system.mem_ctrl.writePktSize::1                     0                       # Write request sizes (log2)
system.mem_ctrl.writePktSize::2                     0                       # Write request sizes (log2)
system.mem_ctrl.writePktSize::3                     0                       # Write request sizes (log2)
system.mem_ctrl.writePktSize::4                     0                       # Write request sizes (log2)
system.mem_ctrl.writePktSize::5                     0                       # Write request sizes (log2)
system.mem_ctrl.writePktSize::6                   503                       # Write request sizes (log2)
system.mem_ctrl.rdQLenPdf::0                    65814                       # What read queue length does an incoming req see
system.mem_ctrl.rdQLenPdf::1                      257                       # What read queue length does an incoming req see
system.mem_ctrl.rdQLenPdf::2                       14                       # What read queue length does an incoming req see
system.mem_ctrl.rdQLenPdf::3                        0                       # What read queue length does an incoming req see
system.mem_ctrl.rdQLenPdf::4                        0                       # What read queue length does an incoming req see
system.mem_ctrl.rdQLenPdf::5                        0                       # What read queue length does an incoming req see
system.mem_ctrl.rdQLenPdf::6                        0                       # What read queue length does an incoming req see
system.mem_ctrl.rdQLenPdf::7                        0                       # What read queue length does an incoming req see
system.mem_ctrl.rdQLenPdf::8                        0                       # What read queue length does an incoming req see
system.mem_ctrl.rdQLenPdf::9                        0                       # What read queue length does an incoming req see
system.mem_ctrl.rdQLenPdf::10                       0                       # What read queue length does an incoming req see
system.mem_ctrl.rdQLenPdf::11                       0                       # What read queue length does an incoming req see
system.mem_ctrl.rdQLenPdf::12                       0                       # What read queue length does an incoming req see
system.mem_ctrl.rdQLenPdf::13                       0                       # What read queue length does an incoming req see
system.mem_ctrl.rdQLenPdf::14                       0                       # What read queue length does an incoming req see
system.mem_ctrl.rdQLenPdf::15                       0                       # What read queue length does an incoming req see
system.mem_ctrl.rdQLenPdf::16                       0                       # What read queue length does an incoming req see
system.mem_ctrl.rdQLenPdf::17                       0                       # What read queue length does an incoming req see
system.mem_ctrl.rdQLenPdf::18                       0                       # What read queue length does an incoming req see
system.mem_ctrl.rdQLenPdf::19                       0                       # What read queue length does an incoming req see
system.mem_ctrl.rdQLenPdf::20                       0                       # What read queue length does an incoming req see
system.mem_ctrl.rdQLenPdf::21                       0                       # What read queue length does an incoming req see
system.mem_ctrl.rdQLenPdf::22                       0                       # What read queue length does an incoming req see
system.mem_ctrl.rdQLenPdf::23                       0                       # What read queue length does an incoming req see
system.mem_ctrl.rdQLenPdf::24                       0                       # What read queue length does an incoming req see
system.mem_ctrl.rdQLenPdf::25                       0                       # What read queue length does an incoming req see
system.mem_ctrl.rdQLenPdf::26                       0                       # What read queue length does an incoming req see
system.mem_ctrl.rdQLenPdf::27                       0                       # What read queue length does an incoming req see
system.mem_ctrl.rdQLenPdf::28                       0                       # What read queue length does an incoming req see
system.mem_ctrl.rdQLenPdf::29                       0                       # What read queue length does an incoming req see
system.mem_ctrl.rdQLenPdf::30                       0                       # What read queue length does an incoming req see
system.mem_ctrl.rdQLenPdf::31                       0                       # What read queue length does an incoming req see
system.mem_ctrl.wrQLenPdf::0                        1                       # What write queue length does an incoming req see
system.mem_ctrl.wrQLenPdf::1                        1                       # What write queue length does an incoming req see
system.mem_ctrl.wrQLenPdf::2                        1                       # What write queue length does an incoming req see
system.mem_ctrl.wrQLenPdf::3                        1                       # What write queue length does an incoming req see
system.mem_ctrl.wrQLenPdf::4                        1                       # What write queue length does an incoming req see
system.mem_ctrl.wrQLenPdf::5                        1                       # What write queue length does an incoming req see
system.mem_ctrl.wrQLenPdf::6                        1                       # What write queue length does an incoming req see
system.mem_ctrl.wrQLenPdf::7                        1                       # What write queue length does an incoming req see
system.mem_ctrl.wrQLenPdf::8                        1                       # What write queue length does an incoming req see
system.mem_ctrl.wrQLenPdf::9                        1                       # What write queue length does an incoming req see
system.mem_ctrl.wrQLenPdf::10                       1                       # What write queue length does an incoming req see
system.mem_ctrl.wrQLenPdf::11                       1                       # What write queue length does an incoming req see
system.mem_ctrl.wrQLenPdf::12                       1                       # What write queue length does an incoming req see
system.mem_ctrl.wrQLenPdf::13                       1                       # What write queue length does an incoming req see
system.mem_ctrl.wrQLenPdf::14                       1                       # What write queue length does an incoming req see
system.mem_ctrl.wrQLenPdf::15                      13                       # What write queue length does an incoming req see
system.mem_ctrl.wrQLenPdf::16                      14                       # What write queue length does an incoming req see
system.mem_ctrl.wrQLenPdf::17                      28                       # What write queue length does an incoming req see
system.mem_ctrl.wrQLenPdf::18                      29                       # What write queue length does an incoming req see
system.mem_ctrl.wrQLenPdf::19                      29                       # What write queue length does an incoming req see
system.mem_ctrl.wrQLenPdf::20                      29                       # What write queue length does an incoming req see
system.mem_ctrl.wrQLenPdf::21                      29                       # What write queue length does an incoming req see
system.mem_ctrl.wrQLenPdf::22                      29                       # What write queue length does an incoming req see
system.mem_ctrl.wrQLenPdf::23                      29                       # What write queue length does an incoming req see
system.mem_ctrl.wrQLenPdf::24                      29                       # What write queue length does an incoming req see
system.mem_ctrl.wrQLenPdf::25                      29                       # What write queue length does an incoming req see
system.mem_ctrl.wrQLenPdf::26                      29                       # What write queue length does an incoming req see
system.mem_ctrl.wrQLenPdf::27                      29                       # What write queue length does an incoming req see
system.mem_ctrl.wrQLenPdf::28                      29                       # What write queue length does an incoming req see
system.mem_ctrl.wrQLenPdf::29                      29                       # What write queue length does an incoming req see
system.mem_ctrl.wrQLenPdf::30                      29                       # What write queue length does an incoming req see
system.mem_ctrl.wrQLenPdf::31                      28                       # What write queue length does an incoming req see
system.mem_ctrl.wrQLenPdf::32                      28                       # What write queue length does an incoming req see
system.mem_ctrl.wrQLenPdf::33                       0                       # What write queue length does an incoming req see
system.mem_ctrl.wrQLenPdf::34                       0                       # What write queue length does an incoming req see
system.mem_ctrl.wrQLenPdf::35                       0                       # What write queue length does an incoming req see
system.mem_ctrl.wrQLenPdf::36                       0                       # What write queue length does an incoming req see
system.mem_ctrl.wrQLenPdf::37                       0                       # What write queue length does an incoming req see
system.mem_ctrl.wrQLenPdf::38                       0                       # What write queue length does an incoming req see
system.mem_ctrl.wrQLenPdf::39                       0                       # What write queue length does an incoming req see
system.mem_ctrl.wrQLenPdf::40                       0                       # What write queue length does an incoming req see
system.mem_ctrl.wrQLenPdf::41                       0                       # What write queue length does an incoming req see
system.mem_ctrl.wrQLenPdf::42                       0                       # What write queue length does an incoming req see
system.mem_ctrl.wrQLenPdf::43                       0                       # What write queue length does an incoming req see
system.mem_ctrl.wrQLenPdf::44                       0                       # What write queue length does an incoming req see
system.mem_ctrl.wrQLenPdf::45                       0                       # What write queue length does an incoming req see
system.mem_ctrl.wrQLenPdf::46                       0                       # What write queue length does an incoming req see
system.mem_ctrl.wrQLenPdf::47                       0                       # What write queue length does an incoming req see
system.mem_ctrl.wrQLenPdf::48                       0                       # What write queue length does an incoming req see
system.mem_ctrl.wrQLenPdf::49                       0                       # What write queue length does an incoming req see
system.mem_ctrl.wrQLenPdf::50                       0                       # What write queue length does an incoming req see
system.mem_ctrl.wrQLenPdf::51                       0                       # What write queue length does an incoming req see
system.mem_ctrl.wrQLenPdf::52                       0                       # What write queue length does an incoming req see
system.mem_ctrl.wrQLenPdf::53                       0                       # What write queue length does an incoming req see
system.mem_ctrl.wrQLenPdf::54                       0                       # What write queue length does an incoming req see
system.mem_ctrl.wrQLenPdf::55                       0                       # What write queue length does an incoming req see
system.mem_ctrl.wrQLenPdf::56                       0                       # What write queue length does an incoming req see
system.mem_ctrl.wrQLenPdf::57                       0                       # What write queue length does an incoming req see
system.mem_ctrl.wrQLenPdf::58                       0                       # What write queue length does an incoming req see
system.mem_ctrl.wrQLenPdf::59                       0                       # What write queue length does an incoming req see
system.mem_ctrl.wrQLenPdf::60                       0                       # What write queue length does an incoming req see
system.mem_ctrl.wrQLenPdf::61                       0                       # What write queue length does an incoming req see
system.mem_ctrl.wrQLenPdf::62                       0                       # What write queue length does an incoming req see
system.mem_ctrl.wrQLenPdf::63                       0                       # What write queue length does an incoming req see
system.mem_ctrl.bytesPerActivate::samples         5381                       # Bytes accessed per row activation
system.mem_ctrl.bytesPerActivate::mean     791.192715                       # Bytes accessed per row activation
system.mem_ctrl.bytesPerActivate::gmean    697.459932                       # Bytes accessed per row activation
system.mem_ctrl.bytesPerActivate::stdev    275.817820                       # Bytes accessed per row activation
system.mem_ctrl.bytesPerActivate::0-127           169      3.14%      3.14% # Bytes accessed per row activation
system.mem_ctrl.bytesPerActivate::128-255          173      3.22%      6.36% # Bytes accessed per row activation
system.mem_ctrl.bytesPerActivate::256-383          327      6.08%     12.43% # Bytes accessed per row activation
system.mem_ctrl.bytesPerActivate::384-511           50      0.93%     13.36% # Bytes accessed per row activation
system.mem_ctrl.bytesPerActivate::512-639          288      5.35%     18.71% # Bytes accessed per row activation
system.mem_ctrl.bytesPerActivate::640-767           29      0.54%     19.25% # Bytes accessed per row activation
system.mem_ctrl.bytesPerActivate::768-895         1965     36.52%     55.77% # Bytes accessed per row activation
system.mem_ctrl.bytesPerActivate::896-1023           26      0.48%     56.25% # Bytes accessed per row activation
system.mem_ctrl.bytesPerActivate::1024-1151         2354     43.75%    100.00% # Bytes accessed per row activation
system.mem_ctrl.bytesPerActivate::total          5381                       # Bytes accessed per row activation
system.mem_ctrl.rdPerTurnAround::samples           28                       # Reads before turning the bus around for writes
system.mem_ctrl.rdPerTurnAround::mean     2359.642857                       # Reads before turning the bus around for writes
system.mem_ctrl.rdPerTurnAround::gmean      41.367995                       # Reads before turning the bus around for writes
system.mem_ctrl.rdPerTurnAround::stdev   11327.879636                       # Reads before turning the bus around for writes
system.mem_ctrl.rdPerTurnAround::0-2047            26     92.86%     92.86% # Reads before turning the bus around for writes
system.mem_ctrl.rdPerTurnAround::2048-4095            1      3.57%     96.43% # Reads before turning the bus around for writes
system.mem_ctrl.rdPerTurnAround::59392-61439            1      3.57%    100.00% # Reads before turning the bus around for writes
system.mem_ctrl.rdPerTurnAround::total             28                       # Reads before turning the bus around for writes
system.mem_ctrl.wrPerTurnAround::samples           28                       # Writes before turning the bus around for reads
system.mem_ctrl.wrPerTurnAround::mean       16.892857                       # Writes before turning the bus around for reads
system.mem_ctrl.wrPerTurnAround::gmean      16.864863                       # Writes before turning the bus around for reads
system.mem_ctrl.wrPerTurnAround::stdev       0.994030                       # Writes before turning the bus around for reads
system.mem_ctrl.wrPerTurnAround::16                15     53.57%     53.57% # Writes before turning the bus around for reads
system.mem_ctrl.wrPerTurnAround::17                 1      3.57%     57.14% # Writes before turning the bus around for reads
system.mem_ctrl.wrPerTurnAround::18                12     42.86%    100.00% # Writes before turning the bus around for reads
system.mem_ctrl.wrPerTurnAround::total             28                       # Writes before turning the bus around for reads
system.mem_ctrl.totQLat                     954096200                       # Total ticks spent queuing
system.mem_ctrl.totMemAccLat               2067099770                       # Total ticks spent from burst creation until serviced by the DRAM
system.mem_ctrl.totBusLat                   247950920                       # Total ticks spent in databus transfers
system.mem_ctrl.avgQLat                      14437.41                       # Average queueing delay per DRAM burst
system.mem_ctrl.avgBusLat                     3752.00                       # Average bus latency per DRAM burst
system.mem_ctrl.avgMemAccLat                 31279.41                       # Average memory access latency per DRAM burst
system.mem_ctrl.avgRdBW                         62.12                       # Average DRAM read bandwidth in MiByte/s
system.mem_ctrl.avgWrBW                          0.44                       # Average achieved write bandwidth in MiByte/s
system.mem_ctrl.avgRdBWSys                      62.12                       # Average system read bandwidth in MiByte/s
system.mem_ctrl.avgWrBWSys                       0.47                       # Average system write bandwidth in MiByte/s
system.mem_ctrl.peakBW                       17057.00                       # Theoretical peak bandwidth in MiByte/s
system.mem_ctrl.busUtil                          0.37                       # Data bus utilization in percentage
system.mem_ctrl.busUtilRead                      0.36                       # Data bus utilization in percentage for reads
system.mem_ctrl.busUtilWrite                     0.00                       # Data bus utilization in percentage for writes
system.mem_ctrl.avgRdQLen                        1.00                       # Average read queue length when enqueuing
system.mem_ctrl.avgWrQLen                       13.80                       # Average write queue length when enqueuing
system.mem_ctrl.readRowHits                     60774                       # Number of row buffer hits during reads
system.mem_ctrl.writeRowHits                      393                       # Number of row buffer hits during writes
system.mem_ctrl.readRowHitRate                  91.96                       # Row buffer hit rate for reads
system.mem_ctrl.writeRowHitRate                 78.13                       # Row buffer hit rate for writes
system.mem_ctrl.avgGap                     1022542.24                       # Average gap between requests
system.mem_ctrl.pageHitRate                     91.86                       # Row buffer hit rate, read and write combined
system.mem_ctrl_0.actEnergy              29362761.792000                       # Energy for activate commands per rank (pJ)
system.mem_ctrl_0.preEnergy              14461956.432000                       # Energy for precharge commands per rank (pJ)
system.mem_ctrl_0.readEnergy             222673756.032000                       # Energy for read commands per rank (pJ)
system.mem_ctrl_0.writeEnergy            1622980.128000                       # Energy for write commands per rank (pJ)
system.mem_ctrl_0.refreshEnergy          795447022.272000                       # Energy for refresh commands per rank (pJ)
system.mem_ctrl_0.actBackEnergy          593925541.440000                       # Energy for active background per rank (pJ)
system.mem_ctrl_0.preBackEnergy          29489965.848000                       # Energy for precharge background per rank (pJ)
system.mem_ctrl_0.actPowerDownEnergy     4113950037.120000                       # Energy for active power-down per rank (pJ)
system.mem_ctrl_0.prePowerDownEnergy     207373227.600000                       # Energy for precharge power-down per rank (pJ)
system.mem_ctrl_0.selfRefreshEnergy      14107922544.575998                       # Energy for self refresh per rank (pJ)
system.mem_ctrl_0.totalEnergy            20116229793.239994                       # Total energy per rank (pJ)
system.mem_ctrl_0.averagePower             295.435269                       # Core power per rank (mW)
system.mem_ctrl_0.totalIdleTime           66898551504                       # Total Idle time Per DRAM Rank
system.mem_ctrl_0.memoryStateTime::IDLE      21624000                       # Time in different power states
system.mem_ctrl_0.memoryStateTime::REF      321032000                       # Time in different power states
system.mem_ctrl_0.memoryStateTime::SREF   58705406410                       # Time in different power states
system.mem_ctrl_0.memoryStateTime::PRE_PDN    401889924                       # Time in different power states
system.mem_ctrl_0.memoryStateTime::ACT      848669838                       # Time in different power states
system.mem_ctrl_0.memoryStateTime::ACT_PDN   7791520328                       # Time in different power states
system.mem_ctrl_1.actEnergy              27434744.064000                       # Energy for activate commands per rank (pJ)
system.mem_ctrl_1.preEnergy              13520707.200000                       # Energy for precharge commands per rank (pJ)
system.mem_ctrl_1.readEnergy             214711666.848000                       # Energy for read commands per rank (pJ)
system.mem_ctrl_1.writeEnergy            783507.648000                       # Energy for write commands per rank (pJ)
system.mem_ctrl_1.refreshEnergy          774174938.208000                       # Energy for refresh commands per rank (pJ)
system.mem_ctrl_1.actBackEnergy          574387871.904000                       # Energy for active background per rank (pJ)
system.mem_ctrl_1.preBackEnergy          30749793.648000                       # Energy for precharge background per rank (pJ)
system.mem_ctrl_1.actPowerDownEnergy     3991966018.656000                       # Energy for active power-down per rank (pJ)
system.mem_ctrl_1.prePowerDownEnergy     205859250.576000                       # Energy for precharge power-down per rank (pJ)
system.mem_ctrl_1.selfRefreshEnergy      14172855797.184000                       # Energy for self refresh per rank (pJ)
system.mem_ctrl_1.totalEnergy            20006444295.935997                       # Total energy per rank (pJ)
system.mem_ctrl_1.averagePower             293.822914                       # Core power per rank (mW)
system.mem_ctrl_1.totalIdleTime           66932987060                       # Total Idle time Per DRAM Rank
system.mem_ctrl_1.memoryStateTime::IDLE      25468500                       # Time in different power states
system.mem_ctrl_1.memoryStateTime::REF      312458000                       # Time in different power states
system.mem_ctrl_1.memoryStateTime::SREF   58973537350                       # Time in different power states
system.mem_ctrl_1.memoryStateTime::PRE_PDN    398954466                       # Time in different power states
system.mem_ctrl_1.memoryStateTime::ACT      819186282                       # Time in different power states
system.mem_ctrl_1.memoryStateTime::ACT_PDN   7560537902                       # Time in different power states
system.pwrStateResidencyTicks::UNDEFINED  68090142500                       # Cumulative time (in ticks) in various power states
system.cpu.branchPred.lookups                      82                       # Number of BP lookups
system.cpu.branchPred.condPredicted                82                       # Number of conditional branches predicted
system.cpu.branchPred.condIncorrect                32                       # Number of conditional branches incorrect
system.cpu.branchPred.BTBLookups                   37                       # Number of BTB lookups
system.cpu.branchPred.BTBHits                       0                       # Number of BTB hits
system.cpu.branchPred.BTBCorrect                    0                       # Number of correct BTB predictions (this stat may not work properly.
system.cpu.branchPred.BTBHitPct              0.000000                       # BTB Hit Percentage
system.cpu.branchPred.usedRAS                       0                       # Number of times the RAS was used to get a target.
system.cpu.branchPred.RASInCorrect                  0                       # Number of incorrect RAS predictions.
system.cpu.branchPred.indirectLookups              37                       # Number of indirect predictor lookups.
system.cpu.branchPred.indirectHits                  0                       # Number of indirect target hits.
system.cpu.branchPred.indirectMisses               37                       # Number of indirect misses.
system.cpu.branchPredindirectMispredicted           12                       # Number of mispredicted indirect branches.
system.cpu.dtb.walker.pwrStateResidencyTicks::UNDEFINED  68090142500                       # Cumulative time (in ticks) in various power states
system.cpu.dtb.rdAccesses                    26909323                       # TLB accesses on read requests
system.cpu.dtb.wrAccesses                     7334875                       # TLB accesses on write requests
system.cpu.dtb.rdMisses                          2851                       # TLB misses on read requests
system.cpu.dtb.wrMisses                        116849                       # TLB misses on write requests
system.cpu.apic_clk_domain.clock                 8000                       # Clock period in ticks
system.cpu.interrupts.pwrStateResidencyTicks::UNDEFINED  68090142500                       # Cumulative time (in ticks) in various power states
system.cpu.itb.walker.pwrStateResidencyTicks::UNDEFINED  68090142500                       # Cumulative time (in ticks) in various power states
system.cpu.itb.rdAccesses                           0                       # TLB accesses on read requests
system.cpu.itb.wrAccesses                    18313229                       # TLB accesses on write requests
system.cpu.itb.rdMisses                             0                       # TLB misses on read requests
system.cpu.itb.wrMisses                            90                       # TLB misses on write requests
system.cpu.workload.numSyscalls                    33                       # Number of system calls
system.cpu.pwrStateResidencyTicks::ON     68090142500                       # Cumulative time (in ticks) in various power states
system.cpu.numCycles                        136180285                       # number of cpu cycles simulated
system.cpu.numWorkItemsStarted                      0                       # number of work items this cpu started
system.cpu.numWorkItemsCompleted                    0                       # number of work items this cpu completed
system.cpu.committedInsts                    47700244                       # Number of instructions committed
system.cpu.committedOps                      82046706                       # Number of ops (including micro ops) committed
system.cpu.discardedOps                      13323091                       # Number of ops (including micro ops) which were discarded before commit
system.cpu.numFetchSuspends                         0                       # Number of times Execute suspended instruction fetching
system.cpu.cpi                               2.854918                       # CPI: cycles per instruction
system.cpu.ipc                               0.350273                       # IPC: instructions per cycle
system.cpu.op_class_0::No_OpClass                1287      0.00%      0.00% # Class of committed instruction
system.cpu.op_class_0::IntAlu                50852257     61.98%     61.98% # Class of committed instruction
system.cpu.op_class_0::IntMult                   1192      0.00%     61.98% # Class of committed instruction
system.cpu.op_class_0::IntDiv                    1131      0.00%     61.98% # Class of committed instruction
system.cpu.op_class_0::FloatAdd                  2227      0.00%     61.99% # Class of committed instruction
system.cpu.op_class_0::FloatCmp                     0      0.00%     61.99% # Class of committed instruction
system.cpu.op_class_0::FloatCvt                     0      0.00%     61.99% # Class of committed instruction
system.cpu.op_class_0::FloatMult                    0      0.00%     61.99% # Class of committed instruction
system.cpu.op_class_0::FloatMultAcc                 0      0.00%     61.99% # Class of committed instruction
system.cpu.op_class_0::FloatDiv                     0      0.00%     61.99% # Class of committed instruction
system.cpu.op_class_0::FloatMisc                    0      0.00%     61.99% # Class of committed instruction
system.cpu.op_class_0::FloatSqrt                    0      0.00%     61.99% # Class of committed instruction
system.cpu.op_class_0::SimdAdd                      0      0.00%     61.99% # Class of committed instruction
system.cpu.op_class_0::SimdAddAcc                   0      0.00%     61.99% # Class of committed instruction
system.cpu.op_class_0::SimdAlu                      0      0.00%     61.99% # Class of committed instruction
system.cpu.op_class_0::SimdCmp                      0      0.00%     61.99% # Class of committed instruction
system.cpu.op_class_0::SimdCvt                      0      0.00%     61.99% # Class of committed instruction
system.cpu.op_class_0::SimdMisc                     0      0.00%     61.99% # Class of committed instruction
system.cpu.op_class_0::SimdMult                     0      0.00%     61.99% # Class of committed instruction
system.cpu.op_class_0::SimdMultAcc                  0      0.00%     61.99% # Class of committed instruction
system.cpu.op_class_0::SimdShift                    0      0.00%     61.99% # Class of committed instruction
system.cpu.op_class_0::SimdShiftAcc                 0      0.00%     61.99% # Class of committed instruction
system.cpu.op_class_0::SimdSqrt                     0      0.00%     61.99% # Class of committed instruction
system.cpu.op_class_0::SimdFloatAdd                 0      0.00%     61.99% # Class of committed instruction
system.cpu.op_class_0::SimdFloatAlu                 0      0.00%     61.99% # Class of committed instruction
system.cpu.op_class_0::SimdFloatCmp                 0      0.00%     61.99% # Class of committed instruction
system.cpu.op_class_0::SimdFloatCvt                 0      0.00%     61.99% # Class of committed instruction
system.cpu.op_class_0::SimdFloatDiv                 0      0.00%     61.99% # Class of committed instruction
system.cpu.op_class_0::SimdFloatMisc                0      0.00%     61.99% # Class of committed instruction
system.cpu.op_class_0::SimdFloatMult                0      0.00%     61.99% # Class of committed instruction
system.cpu.op_class_0::SimdFloatMultAcc             0      0.00%     61.99% # Class of committed instruction
system.cpu.op_class_0::SimdFloatSqrt                0      0.00%     61.99% # Class of committed instruction
system.cpu.op_class_0::MemRead               23853209     29.07%     91.06% # Class of committed instruction
system.cpu.op_class_0::MemWrite               7334237      8.94%    100.00% # Class of committed instruction
system.cpu.op_class_0::FloatMemRead               782      0.00%    100.00% # Class of committed instruction
system.cpu.op_class_0::FloatMemWrite              384      0.00%    100.00% # Class of committed instruction
system.cpu.op_class_0::IprAccess                    0      0.00%    100.00% # Class of committed instruction
system.cpu.op_class_0::InstPrefetch                 0      0.00%    100.00% # Class of committed instruction
system.cpu.op_class_0::total                 82046706                       # Class of committed instruction
system.cpu.tickCycles                       126506303                       # Number of cycles that the object actually ticked
system.cpu.idleCycles                         9673982                       # Total number of cycles that the object has spent stopped
system.cpu.dcache.tags.pwrStateResidencyTicks::UNDEFINED  68090142500                       # Cumulative time (in ticks) in various power states
system.cpu.dcache.tags.replacements           1278653                       # number of replacements
system.cpu.dcache.tags.tagsinuse          1022.489094                       # Cycle average of tags in use
system.cpu.dcache.tags.total_refs            32897468                       # Total number of references to valid blocks.
system.cpu.dcache.tags.sampled_refs           1279677                       # Sample count of references to valid blocks.
system.cpu.dcache.tags.avg_refs             25.707634                       # Average number of references to valid blocks.
system.cpu.dcache.tags.warmup_cycle         317415500                       # Cycle when the warmup percentage was hit.
system.cpu.dcache.tags.occ_blocks::cpu.data  1022.489094                       # Average occupied blocks per requestor
system.cpu.dcache.tags.occ_percent::cpu.data     0.998525                       # Average percentage of cache occupancy
system.cpu.dcache.tags.occ_percent::total     0.998525                       # Average percentage of cache occupancy
system.cpu.dcache.tags.occ_task_id_blocks::1024         1024                       # Occupied blocks per task id
system.cpu.dcache.tags.age_task_id_blocks_1024::0           37                       # Occupied blocks per task id
system.cpu.dcache.tags.age_task_id_blocks_1024::1          308                       # Occupied blocks per task id
system.cpu.dcache.tags.age_task_id_blocks_1024::2          677                       # Occupied blocks per task id
system.cpu.dcache.tags.age_task_id_blocks_1024::4            2                       # Occupied blocks per task id
system.cpu.dcache.tags.occ_task_id_percent::1024            1                       # Percentage of cache occupancy per task id
system.cpu.dcache.tags.tag_accesses          69759653                       # Number of tag accesses
system.cpu.dcache.tags.data_accesses         69759653                       # Number of data accesses
system.cpu.dcache.pwrStateResidencyTicks::UNDEFINED  68090142500                       # Cumulative time (in ticks) in various power states
system.cpu.dcache.ReadReq_hits::cpu.data     26840519                       # number of ReadReq hits
system.cpu.dcache.ReadReq_hits::total        26840519                       # number of ReadReq hits
system.cpu.dcache.WriteReq_hits::cpu.data      6056949                       # number of WriteReq hits
system.cpu.dcache.WriteReq_hits::total        6056949                       # number of WriteReq hits
system.cpu.dcache.demand_hits::cpu.data      32897468                       # number of demand (read+write) hits
system.cpu.dcache.demand_hits::total         32897468                       # number of demand (read+write) hits
system.cpu.dcache.overall_hits::cpu.data     32897468                       # number of overall hits
system.cpu.dcache.overall_hits::total        32897468                       # number of overall hits
system.cpu.dcache.ReadReq_misses::cpu.data        64848                       # number of ReadReq misses
system.cpu.dcache.ReadReq_misses::total         64848                       # number of ReadReq misses
system.cpu.dcache.WriteReq_misses::cpu.data      1277672                       # number of WriteReq misses
system.cpu.dcache.WriteReq_misses::total      1277672                       # number of WriteReq misses
system.cpu.dcache.demand_misses::cpu.data      1342520                       # number of demand (read+write) misses
system.cpu.dcache.demand_misses::total        1342520                       # number of demand (read+write) misses
system.cpu.dcache.overall_misses::cpu.data      1342520                       # number of overall misses
system.cpu.dcache.overall_misses::total       1342520                       # number of overall misses
system.cpu.dcache.ReadReq_miss_latency::cpu.data    970209500                       # number of ReadReq miss cycles
system.cpu.dcache.ReadReq_miss_latency::total    970209500                       # number of ReadReq miss cycles
system.cpu.dcache.WriteReq_miss_latency::cpu.data  24226519500                       # number of WriteReq miss cycles
system.cpu.dcache.WriteReq_miss_latency::total  24226519500                       # number of WriteReq miss cycles
system.cpu.dcache.demand_miss_latency::cpu.data  25196729000                       # number of demand (read+write) miss cycles
system.cpu.dcache.demand_miss_latency::total  25196729000                       # number of demand (read+write) miss cycles
system.cpu.dcache.overall_miss_latency::cpu.data  25196729000                       # number of overall miss cycles
system.cpu.dcache.overall_miss_latency::total  25196729000                       # number of overall miss cycles
system.cpu.dcache.ReadReq_accesses::cpu.data     26905367                       # number of ReadReq accesses(hits+misses)
system.cpu.dcache.ReadReq_accesses::total     26905367                       # number of ReadReq accesses(hits+misses)
system.cpu.dcache.WriteReq_accesses::cpu.data      7334621                       # number of WriteReq accesses(hits+misses)
system.cpu.dcache.WriteReq_accesses::total      7334621                       # number of WriteReq accesses(hits+misses)
system.cpu.dcache.demand_accesses::cpu.data     34239988                       # number of demand (read+write) accesses
system.cpu.dcache.demand_accesses::total     34239988                       # number of demand (read+write) accesses
system.cpu.dcache.overall_accesses::cpu.data     34239988                       # number of overall (read+write) accesses
system.cpu.dcache.overall_accesses::total     34239988                       # number of overall (read+write) accesses
system.cpu.dcache.ReadReq_miss_rate::cpu.data     0.002410                       # miss rate for ReadReq accesses
system.cpu.dcache.ReadReq_miss_rate::total     0.002410                       # miss rate for ReadReq accesses
system.cpu.dcache.WriteReq_miss_rate::cpu.data     0.174197                       # miss rate for WriteReq accesses
system.cpu.dcache.WriteReq_miss_rate::total     0.174197                       # miss rate for WriteReq accesses
system.cpu.dcache.demand_miss_rate::cpu.data     0.039209                       # miss rate for demand accesses
system.cpu.dcache.demand_miss_rate::total     0.039209                       # miss rate for demand accesses
system.cpu.dcache.overall_miss_rate::cpu.data     0.039209                       # miss rate for overall accesses
system.cpu.dcache.overall_miss_rate::total     0.039209                       # miss rate for overall accesses
system.cpu.dcache.ReadReq_avg_miss_latency::cpu.data 14961.286393                       # average ReadReq miss latency
system.cpu.dcache.ReadReq_avg_miss_latency::total 14961.286393                       # average ReadReq miss latency
system.cpu.dcache.WriteReq_avg_miss_latency::cpu.data 18961.454505                       # average WriteReq miss latency
system.cpu.dcache.WriteReq_avg_miss_latency::total 18961.454505                       # average WriteReq miss latency
system.cpu.dcache.demand_avg_miss_latency::cpu.data 18768.233620                       # average overall miss latency
system.cpu.dcache.demand_avg_miss_latency::total 18768.233620                       # average overall miss latency
system.cpu.dcache.overall_avg_miss_latency::cpu.data 18768.233620                       # average overall miss latency
system.cpu.dcache.overall_avg_miss_latency::total 18768.233620                       # average overall miss latency
system.cpu.dcache.blocked_cycles::no_mshrs            0                       # number of cycles access was blocked
system.cpu.dcache.blocked_cycles::no_targets            0                       # number of cycles access was blocked
system.cpu.dcache.blocked::no_mshrs                 0                       # number of cycles access was blocked
system.cpu.dcache.blocked::no_targets               0                       # number of cycles access was blocked
system.cpu.dcache.avg_blocked_cycles::no_mshrs          nan                       # average number of cycles each access was blocked
system.cpu.dcache.avg_blocked_cycles::no_targets          nan                       # average number of cycles each access was blocked
system.cpu.dcache.writebacks::writebacks      1276747                       # number of writebacks
system.cpu.dcache.writebacks::total           1276747                       # number of writebacks
system.cpu.dcache.ReadReq_mshr_hits::cpu.data           21                       # number of ReadReq MSHR hits
system.cpu.dcache.ReadReq_mshr_hits::total           21                       # number of ReadReq MSHR hits
system.cpu.dcache.WriteReq_mshr_hits::cpu.data        62822                       # number of WriteReq MSHR hits
system.cpu.dcache.WriteReq_mshr_hits::total        62822                       # number of WriteReq MSHR hits
system.cpu.dcache.demand_mshr_hits::cpu.data        62843                       # number of demand (read+write) MSHR hits
system.cpu.dcache.demand_mshr_hits::total        62843                       # number of demand (read+write) MSHR hits
system.cpu.dcache.overall_mshr_hits::cpu.data        62843                       # number of overall MSHR hits
system.cpu.dcache.overall_mshr_hits::total        62843                       # number of overall MSHR hits
system.cpu.dcache.ReadReq_mshr_misses::cpu.data        64827                       # number of ReadReq MSHR misses
system.cpu.dcache.ReadReq_mshr_misses::total        64827                       # number of ReadReq MSHR misses
system.cpu.dcache.WriteReq_mshr_misses::cpu.data      1214850                       # number of WriteReq MSHR misses
system.cpu.dcache.WriteReq_mshr_misses::total      1214850                       # number of WriteReq MSHR misses
system.cpu.dcache.demand_mshr_misses::cpu.data      1279677                       # number of demand (read+write) MSHR misses
system.cpu.dcache.demand_mshr_misses::total      1279677                       # number of demand (read+write) MSHR misses
system.cpu.dcache.overall_mshr_misses::cpu.data      1279677                       # number of overall MSHR misses
system.cpu.dcache.overall_mshr_misses::total      1279677                       # number of overall MSHR misses
system.cpu.dcache.ReadReq_mshr_miss_latency::cpu.data    903375500                       # number of ReadReq MSHR miss cycles
system.cpu.dcache.ReadReq_mshr_miss_latency::total    903375500                       # number of ReadReq MSHR miss cycles
system.cpu.dcache.WriteReq_mshr_miss_latency::cpu.data  18769034500                       # number of WriteReq MSHR miss cycles
system.cpu.dcache.WriteReq_mshr_miss_latency::total  18769034500                       # number of WriteReq MSHR miss cycles
system.cpu.dcache.demand_mshr_miss_latency::cpu.data  19672410000                       # number of demand (read+write) MSHR miss cycles
system.cpu.dcache.demand_mshr_miss_latency::total  19672410000                       # number of demand (read+write) MSHR miss cycles
system.cpu.dcache.overall_mshr_miss_latency::cpu.data  19672410000                       # number of overall MSHR miss cycles
system.cpu.dcache.overall_mshr_miss_latency::total  19672410000                       # number of overall MSHR miss cycles
system.cpu.dcache.ReadReq_mshr_miss_rate::cpu.data     0.002409                       # mshr miss rate for ReadReq accesses
system.cpu.dcache.ReadReq_mshr_miss_rate::total     0.002409                       # mshr miss rate for ReadReq accesses
system.cpu.dcache.WriteReq_mshr_miss_rate::cpu.data     0.165632                       # mshr miss rate for WriteReq accesses
system.cpu.dcache.WriteReq_mshr_miss_rate::total     0.165632                       # mshr miss rate for WriteReq accesses
system.cpu.dcache.demand_mshr_miss_rate::cpu.data     0.037374                       # mshr miss rate for demand accesses
system.cpu.dcache.demand_mshr_miss_rate::total     0.037374                       # mshr miss rate for demand accesses
system.cpu.dcache.overall_mshr_miss_rate::cpu.data     0.037374                       # mshr miss rate for overall accesses
system.cpu.dcache.overall_mshr_miss_rate::total     0.037374                       # mshr miss rate for overall accesses
system.cpu.dcache.ReadReq_avg_mshr_miss_latency::cpu.data 13935.173616                       # average ReadReq mshr miss latency
system.cpu.dcache.ReadReq_avg_mshr_miss_latency::total 13935.173616                       # average ReadReq mshr miss latency
system.cpu.dcache.WriteReq_avg_mshr_miss_latency::cpu.data 15449.672388                       # average WriteReq mshr miss latency
system.cpu.dcache.WriteReq_avg_mshr_miss_latency::total 15449.672388                       # average WriteReq mshr miss latency
system.cpu.dcache.demand_avg_mshr_miss_latency::cpu.data 15372.949580                       # average overall mshr miss latency
system.cpu.dcache.demand_avg_mshr_miss_latency::total 15372.949580                       # average overall mshr miss latency
system.cpu.dcache.overall_avg_mshr_miss_latency::cpu.data 15372.949580                       # average overall mshr miss latency
system.cpu.dcache.overall_avg_mshr_miss_latency::total 15372.949580                       # average overall mshr miss latency
system.cpu.icache.tags.pwrStateResidencyTicks::UNDEFINED  68090142500                       # Cumulative time (in ticks) in various power states
system.cpu.icache.tags.replacements               734                       # number of replacements
system.cpu.icache.tags.tagsinuse           494.656945                       # Cycle average of tags in use
system.cpu.icache.tags.total_refs            18311989                       # Total number of references to valid blocks.
system.cpu.icache.tags.sampled_refs              1239                       # Sample count of references to valid blocks.
system.cpu.icache.tags.avg_refs          14779.652139                       # Average number of references to valid blocks.
system.cpu.icache.tags.warmup_cycle                 0                       # Cycle when the warmup percentage was hit.
system.cpu.icache.tags.occ_blocks::cpu.inst   494.656945                       # Average occupied blocks per requestor
system.cpu.icache.tags.occ_percent::cpu.inst     0.966127                       # Average percentage of cache occupancy
system.cpu.icache.tags.occ_percent::total     0.966127                       # Average percentage of cache occupancy
system.cpu.icache.tags.occ_task_id_blocks::1024          505                       # Occupied blocks per task id
system.cpu.icache.tags.age_task_id_blocks_1024::0          104                       # Occupied blocks per task id
system.cpu.icache.tags.age_task_id_blocks_1024::1          127                       # Occupied blocks per task id
system.cpu.icache.tags.age_task_id_blocks_1024::4          274                       # Occupied blocks per task id
system.cpu.icache.tags.occ_task_id_percent::1024     0.986328                       # Percentage of cache occupancy per task id
system.cpu.icache.tags.tag_accesses          36627697                       # Number of tag accesses
system.cpu.icache.tags.data_accesses         36627697                       # Number of data accesses
system.cpu.icache.pwrStateResidencyTicks::UNDEFINED  68090142500                       # Cumulative time (in ticks) in various power states
system.cpu.icache.ReadReq_hits::cpu.inst     18311989                       # number of ReadReq hits
system.cpu.icache.ReadReq_hits::total        18311989                       # number of ReadReq hits
system.cpu.icache.demand_hits::cpu.inst      18311989                       # number of demand (read+write) hits
system.cpu.icache.demand_hits::total         18311989                       # number of demand (read+write) hits
system.cpu.icache.overall_hits::cpu.inst     18311989                       # number of overall hits
system.cpu.icache.overall_hits::total        18311989                       # number of overall hits
system.cpu.icache.ReadReq_misses::cpu.inst         1240                       # number of ReadReq misses
system.cpu.icache.ReadReq_misses::total          1240                       # number of ReadReq misses
system.cpu.icache.demand_misses::cpu.inst         1240                       # number of demand (read+write) misses
system.cpu.icache.demand_misses::total           1240                       # number of demand (read+write) misses
system.cpu.icache.overall_misses::cpu.inst         1240                       # number of overall misses
system.cpu.icache.overall_misses::total          1240                       # number of overall misses
system.cpu.icache.ReadReq_miss_latency::cpu.inst     90421500                       # number of ReadReq miss cycles
system.cpu.icache.ReadReq_miss_latency::total     90421500                       # number of ReadReq miss cycles
system.cpu.icache.demand_miss_latency::cpu.inst     90421500                       # number of demand (read+write) miss cycles
system.cpu.icache.demand_miss_latency::total     90421500                       # number of demand (read+write) miss cycles
system.cpu.icache.overall_miss_latency::cpu.inst     90421500                       # number of overall miss cycles
system.cpu.icache.overall_miss_latency::total     90421500                       # number of overall miss cycles
system.cpu.icache.ReadReq_accesses::cpu.inst     18313229                       # number of ReadReq accesses(hits+misses)
system.cpu.icache.ReadReq_accesses::total     18313229                       # number of ReadReq accesses(hits+misses)
system.cpu.icache.demand_accesses::cpu.inst     18313229                       # number of demand (read+write) accesses
system.cpu.icache.demand_accesses::total     18313229                       # number of demand (read+write) accesses
system.cpu.icache.overall_accesses::cpu.inst     18313229                       # number of overall (read+write) accesses
system.cpu.icache.overall_accesses::total     18313229                       # number of overall (read+write) accesses
system.cpu.icache.ReadReq_miss_rate::cpu.inst     0.000068                       # miss rate for ReadReq accesses
system.cpu.icache.ReadReq_miss_rate::total     0.000068                       # miss rate for ReadReq accesses
system.cpu.icache.demand_miss_rate::cpu.inst     0.000068                       # miss rate for demand accesses
system.cpu.icache.demand_miss_rate::total     0.000068                       # miss rate for demand accesses
system.cpu.icache.overall_miss_rate::cpu.inst     0.000068                       # miss rate for overall accesses
system.cpu.icache.overall_miss_rate::total     0.000068                       # miss rate for overall accesses
system.cpu.icache.ReadReq_avg_miss_latency::cpu.inst 72920.564516                       # average ReadReq miss latency
system.cpu.icache.ReadReq_avg_miss_latency::total 72920.564516                       # average ReadReq miss latency
system.cpu.icache.demand_avg_miss_latency::cpu.inst 72920.564516                       # average overall miss latency
system.cpu.icache.demand_avg_miss_latency::total 72920.564516                       # average overall miss latency
system.cpu.icache.overall_avg_miss_latency::cpu.inst 72920.564516                       # average overall miss latency
system.cpu.icache.overall_avg_miss_latency::total 72920.564516                       # average overall miss latency
system.cpu.icache.blocked_cycles::no_mshrs            0                       # number of cycles access was blocked
system.cpu.icache.blocked_cycles::no_targets            0                       # number of cycles access was blocked
system.cpu.icache.blocked::no_mshrs                 0                       # number of cycles access was blocked
system.cpu.icache.blocked::no_targets               0                       # number of cycles access was blocked
system.cpu.icache.avg_blocked_cycles::no_mshrs          nan                       # average number of cycles each access was blocked
system.cpu.icache.avg_blocked_cycles::no_targets          nan                       # average number of cycles each access was blocked
system.cpu.icache.ReadReq_mshr_misses::cpu.inst         1240                       # number of ReadReq MSHR misses
system.cpu.icache.ReadReq_mshr_misses::total         1240                       # number of ReadReq MSHR misses
system.cpu.icache.demand_mshr_misses::cpu.inst         1240                       # number of demand (read+write) MSHR misses
system.cpu.icache.demand_mshr_misses::total         1240                       # number of demand (read+write) MSHR misses
system.cpu.icache.overall_mshr_misses::cpu.inst         1240                       # number of overall MSHR misses
system.cpu.icache.overall_mshr_misses::total         1240                       # number of overall MSHR misses
system.cpu.icache.ReadReq_mshr_miss_latency::cpu.inst     89182500                       # number of ReadReq MSHR miss cycles
system.cpu.icache.ReadReq_mshr_miss_latency::total     89182500                       # number of ReadReq MSHR miss cycles
system.cpu.icache.demand_mshr_miss_latency::cpu.inst     89182500                       # number of demand (read+write) MSHR miss cycles
system.cpu.icache.demand_mshr_miss_latency::total     89182500                       # number of demand (read+write) MSHR miss cycles
system.cpu.icache.overall_mshr_miss_latency::cpu.inst     89182500                       # number of overall MSHR miss cycles
system.cpu.icache.overall_mshr_miss_latency::total     89182500                       # number of overall MSHR miss cycles
system.cpu.icache.ReadReq_mshr_miss_rate::cpu.inst     0.000068                       # mshr miss rate for ReadReq accesses
system.cpu.icache.ReadReq_mshr_miss_rate::total     0.000068                       # mshr miss rate for ReadReq accesses
system.cpu.icache.demand_mshr_miss_rate::cpu.inst     0.000068                       # mshr miss rate for demand accesses
system.cpu.icache.demand_mshr_miss_rate::total     0.000068                       # mshr miss rate for demand accesses
system.cpu.icache.overall_mshr_miss_rate::cpu.inst     0.000068                       # mshr miss rate for overall accesses
system.cpu.icache.overall_mshr_miss_rate::total     0.000068                       # mshr miss rate for overall accesses
system.cpu.icache.ReadReq_avg_mshr_miss_latency::cpu.inst 71921.370968                       # average ReadReq mshr miss latency
system.cpu.icache.ReadReq_avg_mshr_miss_latency::total 71921.370968                       # average ReadReq mshr miss latency
system.cpu.icache.demand_avg_mshr_miss_latency::cpu.inst 71921.370968                       # average overall mshr miss latency
system.cpu.icache.demand_avg_mshr_miss_latency::total 71921.370968                       # average overall mshr miss latency
system.cpu.icache.overall_avg_mshr_miss_latency::cpu.inst 71921.370968                       # average overall mshr miss latency
system.cpu.icache.overall_avg_mshr_miss_latency::total 71921.370968                       # average overall mshr miss latency
system.l2bus.snoop_filter.tot_requests        2560304                       # Total number of requests made to the snoop filter.
system.l2bus.snoop_filter.hit_single_requests      1279389                       # Number of requests hitting in the snoop filter with a single holder of the requested data.
system.l2bus.snoop_filter.hit_multi_requests            5                       # Number of requests hitting in the snoop filter with multiple (>1) holders of the requested data.
system.l2bus.snoop_filter.tot_snoops              232                       # Total number of snoops made to the snoop filter.
system.l2bus.snoop_filter.hit_single_snoops          232                       # Number of snoops hitting in the snoop filter with a single holder of the requested data.
system.l2bus.snoop_filter.hit_multi_snoops            0                       # Number of snoops hitting in the snoop filter with multiple (>1) holders of the requested data.
system.l2bus.pwrStateResidencyTicks::UNDEFINED  68090142500                       # Cumulative time (in ticks) in various power states
system.l2bus.trans_dist::ReadResp               66066                       # Transaction distribution
system.l2bus.trans_dist::WritebackDirty       1277250                       # Transaction distribution
system.l2bus.trans_dist::CleanEvict              4755                       # Transaction distribution
system.l2bus.trans_dist::ReadExReq            1214850                       # Transaction distribution
system.l2bus.trans_dist::ReadExResp           1214850                       # Transaction distribution
system.l2bus.trans_dist::ReadSharedReq          66067                       # Transaction distribution
system.l2bus.pkt_count_system.cpu.icache.mem_side::system.l2cache.cpu_side         3213                       # Packet count per connected master and slave (bytes)
system.l2bus.pkt_count_system.cpu.dcache.mem_side::system.l2cache.cpu_side      3838007                       # Packet count per connected master and slave (bytes)
system.l2bus.pkt_count::total                 3841220                       # Packet count per connected master and slave (bytes)
system.l2bus.pkt_size_system.cpu.icache.mem_side::system.l2cache.cpu_side        79296                       # Cumulative packet size per connected master and slave (bytes)
system.l2bus.pkt_size_system.cpu.dcache.mem_side::system.l2cache.cpu_side    163611136                       # Cumulative packet size per connected master and slave (bytes)
system.l2bus.pkt_size::total                163690432                       # Cumulative packet size per connected master and slave (bytes)
system.l2bus.snoops                              2618                       # Total snoops (count)
system.l2bus.snoopTraffic                       32192                       # Total snoop traffic (bytes)
system.l2bus.snoop_fanout::samples            1283535                       # Request fanout histogram
system.l2bus.snoop_fanout::mean              0.000186                       # Request fanout histogram
system.l2bus.snoop_fanout::stdev             0.013644                       # Request fanout histogram
system.l2bus.snoop_fanout::underflows               0      0.00%      0.00% # Request fanout histogram
system.l2bus.snoop_fanout::0                  1283296     99.98%     99.98% # Request fanout histogram
system.l2bus.snoop_fanout::1                      239      0.02%    100.00% # Request fanout histogram
system.l2bus.snoop_fanout::2                        0      0.00%    100.00% # Request fanout histogram
system.l2bus.snoop_fanout::overflows                0      0.00%    100.00% # Request fanout histogram
system.l2bus.snoop_fanout::min_value                0                       # Request fanout histogram
system.l2bus.snoop_fanout::max_value                1                       # Request fanout histogram
system.l2bus.snoop_fanout::total              1283535                       # Request fanout histogram
system.l2bus.reqLayer0.occupancy           2556899000                       # Layer occupancy (ticks)
system.l2bus.reqLayer0.utilization                3.8                       # Layer utilization (%)
system.l2bus.respLayer0.occupancy             1858500                       # Layer occupancy (ticks)
system.l2bus.respLayer0.utilization               0.0                       # Layer utilization (%)
system.l2bus.respLayer1.occupancy          1919515500                       # Layer occupancy (ticks)
system.l2bus.respLayer1.utilization               2.8                       # Layer utilization (%)
system.l2cache.tags.pwrStateResidencyTicks::UNDEFINED  68090142500                       # Cumulative time (in ticks) in various power states
system.l2cache.tags.replacements                 2618                       # number of replacements
system.l2cache.tags.tagsinuse            55654.630029                       # Cycle average of tags in use
system.l2cache.tags.total_refs                2494114                       # Total number of references to valid blocks.
system.l2cache.tags.sampled_refs                66086                       # Sample count of references to valid blocks.
system.l2cache.tags.avg_refs                37.740429                       # Average number of references to valid blocks.
system.l2cache.tags.warmup_cycle                    0                       # Cycle when the warmup percentage was hit.
system.l2cache.tags.occ_blocks::cpu.inst   648.579546                       # Average occupied blocks per requestor
system.l2cache.tags.occ_blocks::cpu.data 55006.050483                       # Average occupied blocks per requestor
system.l2cache.tags.occ_percent::cpu.inst     0.009897                       # Average percentage of cache occupancy
system.l2cache.tags.occ_percent::cpu.data     0.839326                       # Average percentage of cache occupancy
system.l2cache.tags.occ_percent::total       0.849222                       # Average percentage of cache occupancy
system.l2cache.tags.occ_task_id_blocks::1024        63468                       # Occupied blocks per task id
system.l2cache.tags.age_task_id_blocks_1024::0          110                       # Occupied blocks per task id
system.l2cache.tags.age_task_id_blocks_1024::1          235                       # Occupied blocks per task id
system.l2cache.tags.age_task_id_blocks_1024::4        63123                       # Occupied blocks per task id
system.l2cache.tags.occ_task_id_percent::1024     0.968445                       # Percentage of cache occupancy per task id
system.l2cache.tags.tag_accesses             20548478                       # Number of tag accesses
system.l2cache.tags.data_accesses            20548478                       # Number of data accesses
system.l2cache.pwrStateResidencyTicks::UNDEFINED  68090142500                       # Cumulative time (in ticks) in various power states
system.l2cache.WritebackDirty_hits::writebacks      1276747                       # number of WritebackDirty hits
system.l2cache.WritebackDirty_hits::total      1276747                       # number of WritebackDirty hits
system.l2cache.ReadExReq_hits::cpu.data       1151847                       # number of ReadExReq hits
system.l2cache.ReadExReq_hits::total          1151847                       # number of ReadExReq hits
system.l2cache.ReadSharedReq_hits::cpu.inst           85                       # number of ReadSharedReq hits
system.l2cache.ReadSharedReq_hits::cpu.data        62898                       # number of ReadSharedReq hits
system.l2cache.ReadSharedReq_hits::total        62983                       # number of ReadSharedReq hits
system.l2cache.demand_hits::cpu.inst               85                       # number of demand (read+write) hits
system.l2cache.demand_hits::cpu.data          1214745                       # number of demand (read+write) hits
system.l2cache.demand_hits::total             1214830                       # number of demand (read+write) hits
system.l2cache.overall_hits::cpu.inst              85                       # number of overall hits
system.l2cache.overall_hits::cpu.data         1214745                       # number of overall hits
system.l2cache.overall_hits::total            1214830                       # number of overall hits
system.l2cache.ReadExReq_misses::cpu.data        63003                       # number of ReadExReq misses
system.l2cache.ReadExReq_misses::total          63003                       # number of ReadExReq misses
system.l2cache.ReadSharedReq_misses::cpu.inst         1155                       # number of ReadSharedReq misses
system.l2cache.ReadSharedReq_misses::cpu.data         1929                       # number of ReadSharedReq misses
system.l2cache.ReadSharedReq_misses::total         3084                       # number of ReadSharedReq misses
system.l2cache.demand_misses::cpu.inst           1155                       # number of demand (read+write) misses
system.l2cache.demand_misses::cpu.data          64932                       # number of demand (read+write) misses
system.l2cache.demand_misses::total             66087                       # number of demand (read+write) misses
system.l2cache.overall_misses::cpu.inst          1155                       # number of overall misses
system.l2cache.overall_misses::cpu.data         64932                       # number of overall misses
system.l2cache.overall_misses::total            66087                       # number of overall misses
system.l2cache.ReadExReq_miss_latency::cpu.data   4852362500                       # number of ReadExReq miss cycles
system.l2cache.ReadExReq_miss_latency::total   4852362500                       # number of ReadExReq miss cycles
system.l2cache.ReadSharedReq_miss_latency::cpu.inst     86427500                       # number of ReadSharedReq miss cycles
system.l2cache.ReadSharedReq_miss_latency::cpu.data    145699000                       # number of ReadSharedReq miss cycles
system.l2cache.ReadSharedReq_miss_latency::total    232126500                       # number of ReadSharedReq miss cycles
system.l2cache.demand_miss_latency::cpu.inst     86427500                       # number of demand (read+write) miss cycles
system.l2cache.demand_miss_latency::cpu.data   4998061500                       # number of demand (read+write) miss cycles
system.l2cache.demand_miss_latency::total   5084489000                       # number of demand (read+write) miss cycles
system.l2cache.overall_miss_latency::cpu.inst     86427500                       # number of overall miss cycles
system.l2cache.overall_miss_latency::cpu.data   4998061500                       # number of overall miss cycles
system.l2cache.overall_miss_latency::total   5084489000                       # number of overall miss cycles
system.l2cache.WritebackDirty_accesses::writebacks      1276747                       # number of WritebackDirty accesses(hits+misses)
system.l2cache.WritebackDirty_accesses::total      1276747                       # number of WritebackDirty accesses(hits+misses)
system.l2cache.ReadExReq_accesses::cpu.data      1214850                       # number of ReadExReq accesses(hits+misses)
system.l2cache.ReadExReq_accesses::total      1214850                       # number of ReadExReq accesses(hits+misses)
system.l2cache.ReadSharedReq_accesses::cpu.inst         1240                       # number of ReadSharedReq accesses(hits+misses)
system.l2cache.ReadSharedReq_accesses::cpu.data        64827                       # number of ReadSharedReq accesses(hits+misses)
system.l2cache.ReadSharedReq_accesses::total        66067                       # number of ReadSharedReq accesses(hits+misses)
system.l2cache.demand_accesses::cpu.inst         1240                       # number of demand (read+write) accesses
system.l2cache.demand_accesses::cpu.data      1279677                       # number of demand (read+write) accesses
system.l2cache.demand_accesses::total         1280917                       # number of demand (read+write) accesses
system.l2cache.overall_accesses::cpu.inst         1240                       # number of overall (read+write) accesses
system.l2cache.overall_accesses::cpu.data      1279677                       # number of overall (read+write) accesses
system.l2cache.overall_accesses::total        1280917                       # number of overall (read+write) accesses
system.l2cache.ReadExReq_miss_rate::cpu.data     0.051861                       # miss rate for ReadExReq accesses
system.l2cache.ReadExReq_miss_rate::total     0.051861                       # miss rate for ReadExReq accesses
system.l2cache.ReadSharedReq_miss_rate::cpu.inst     0.931452                       # miss rate for ReadSharedReq accesses
system.l2cache.ReadSharedReq_miss_rate::cpu.data     0.029756                       # miss rate for ReadSharedReq accesses
system.l2cache.ReadSharedReq_miss_rate::total     0.046680                       # miss rate for ReadSharedReq accesses
system.l2cache.demand_miss_rate::cpu.inst     0.931452                       # miss rate for demand accesses
system.l2cache.demand_miss_rate::cpu.data     0.050741                       # miss rate for demand accesses
system.l2cache.demand_miss_rate::total       0.051594                       # miss rate for demand accesses
system.l2cache.overall_miss_rate::cpu.inst     0.931452                       # miss rate for overall accesses
system.l2cache.overall_miss_rate::cpu.data     0.050741                       # miss rate for overall accesses
system.l2cache.overall_miss_rate::total      0.051594                       # miss rate for overall accesses
system.l2cache.ReadExReq_avg_miss_latency::cpu.data 77017.959462                       # average ReadExReq miss latency
system.l2cache.ReadExReq_avg_miss_latency::total 77017.959462                       # average ReadExReq miss latency
system.l2cache.ReadSharedReq_avg_miss_latency::cpu.inst 74829.004329                       # average ReadSharedReq miss latency
system.l2cache.ReadSharedReq_avg_miss_latency::cpu.data 75530.844997                       # average ReadSharedReq miss latency
system.l2cache.ReadSharedReq_avg_miss_latency::total 75267.996109                       # average ReadSharedReq miss latency
system.l2cache.demand_avg_miss_latency::cpu.inst 74829.004329                       # average overall miss latency
system.l2cache.demand_avg_miss_latency::cpu.data 76973.780262                       # average overall miss latency
system.l2cache.demand_avg_miss_latency::total 76936.296095                       # average overall miss latency
system.l2cache.overall_avg_miss_latency::cpu.inst 74829.004329                       # average overall miss latency
system.l2cache.overall_avg_miss_latency::cpu.data 76973.780262                       # average overall miss latency
system.l2cache.overall_avg_miss_latency::total 76936.296095                       # average overall miss latency
system.l2cache.blocked_cycles::no_mshrs             0                       # number of cycles access was blocked
system.l2cache.blocked_cycles::no_targets            0                       # number of cycles access was blocked
system.l2cache.blocked::no_mshrs                    0                       # number of cycles access was blocked
system.l2cache.blocked::no_targets                  0                       # number of cycles access was blocked
system.l2cache.avg_blocked_cycles::no_mshrs          nan                       # average number of cycles each access was blocked
system.l2cache.avg_blocked_cycles::no_targets          nan                       # average number of cycles each access was blocked
system.l2cache.writebacks::writebacks             503                       # number of writebacks
system.l2cache.writebacks::total                  503                       # number of writebacks
system.l2cache.CleanEvict_mshr_misses::writebacks           98                       # number of CleanEvict MSHR misses
system.l2cache.CleanEvict_mshr_misses::total           98                       # number of CleanEvict MSHR misses
system.l2cache.ReadExReq_mshr_misses::cpu.data        63003                       # number of ReadExReq MSHR misses
system.l2cache.ReadExReq_mshr_misses::total        63003                       # number of ReadExReq MSHR misses
system.l2cache.ReadSharedReq_mshr_misses::cpu.inst         1155                       # number of ReadSharedReq MSHR misses
system.l2cache.ReadSharedReq_mshr_misses::cpu.data         1929                       # number of ReadSharedReq MSHR misses
system.l2cache.ReadSharedReq_mshr_misses::total         3084                       # number of ReadSharedReq MSHR misses
system.l2cache.demand_mshr_misses::cpu.inst         1155                       # number of demand (read+write) MSHR misses
system.l2cache.demand_mshr_misses::cpu.data        64932                       # number of demand (read+write) MSHR misses
system.l2cache.demand_mshr_misses::total        66087                       # number of demand (read+write) MSHR misses
system.l2cache.overall_mshr_misses::cpu.inst         1155                       # number of overall MSHR misses
system.l2cache.overall_mshr_misses::cpu.data        64932                       # number of overall MSHR misses
system.l2cache.overall_mshr_misses::total        66087                       # number of overall MSHR misses
system.l2cache.ReadExReq_mshr_miss_latency::cpu.data   4222332500                       # number of ReadExReq MSHR miss cycles
system.l2cache.ReadExReq_mshr_miss_latency::total   4222332500                       # number of ReadExReq MSHR miss cycles
system.l2cache.ReadSharedReq_mshr_miss_latency::cpu.inst     74887500                       # number of ReadSharedReq MSHR miss cycles
system.l2cache.ReadSharedReq_mshr_miss_latency::cpu.data    126409000                       # number of ReadSharedReq MSHR miss cycles
system.l2cache.ReadSharedReq_mshr_miss_latency::total    201296500                       # number of ReadSharedReq MSHR miss cycles
system.l2cache.demand_mshr_miss_latency::cpu.inst     74887500                       # number of demand (read+write) MSHR miss cycles
system.l2cache.demand_mshr_miss_latency::cpu.data   4348741500                       # number of demand (read+write) MSHR miss cycles
system.l2cache.demand_mshr_miss_latency::total   4423629000                       # number of demand (read+write) MSHR miss cycles
system.l2cache.overall_mshr_miss_latency::cpu.inst     74887500                       # number of overall MSHR miss cycles
system.l2cache.overall_mshr_miss_latency::cpu.data   4348741500                       # number of overall MSHR miss cycles
system.l2cache.overall_mshr_miss_latency::total   4423629000                       # number of overall MSHR miss cycles
system.l2cache.CleanEvict_mshr_miss_rate::writebacks          inf                       # mshr miss rate for CleanEvict accesses
system.l2cache.CleanEvict_mshr_miss_rate::total          inf                       # mshr miss rate for CleanEvict accesses
system.l2cache.ReadExReq_mshr_miss_rate::cpu.data     0.051861                       # mshr miss rate for ReadExReq accesses
system.l2cache.ReadExReq_mshr_miss_rate::total     0.051861                       # mshr miss rate for ReadExReq accesses
system.l2cache.ReadSharedReq_mshr_miss_rate::cpu.inst     0.931452                       # mshr miss rate for ReadSharedReq accesses
system.l2cache.ReadSharedReq_mshr_miss_rate::cpu.data     0.029756                       # mshr miss rate for ReadSharedReq accesses
system.l2cache.ReadSharedReq_mshr_miss_rate::total     0.046680                       # mshr miss rate for ReadSharedReq accesses
system.l2cache.demand_mshr_miss_rate::cpu.inst     0.931452                       # mshr miss rate for demand accesses
system.l2cache.demand_mshr_miss_rate::cpu.data     0.050741                       # mshr miss rate for demand accesses
system.l2cache.demand_mshr_miss_rate::total     0.051594                       # mshr miss rate for demand accesses
system.l2cache.overall_mshr_miss_rate::cpu.inst     0.931452                       # mshr miss rate for overall accesses
system.l2cache.overall_mshr_miss_rate::cpu.data     0.050741                       # mshr miss rate for overall accesses
system.l2cache.overall_mshr_miss_rate::total     0.051594                       # mshr miss rate for overall accesses
system.l2cache.ReadExReq_avg_mshr_miss_latency::cpu.data 67017.959462                       # average ReadExReq mshr miss latency
system.l2cache.ReadExReq_avg_mshr_miss_latency::total 67017.959462                       # average ReadExReq mshr miss latency
system.l2cache.ReadSharedReq_avg_mshr_miss_latency::cpu.inst 64837.662338                       # average ReadSharedReq mshr miss latency
system.l2cache.ReadSharedReq_avg_mshr_miss_latency::cpu.data 65530.844997                       # average ReadSharedReq mshr miss latency
system.l2cache.ReadSharedReq_avg_mshr_miss_latency::total 65271.238651                       # average ReadSharedReq mshr miss latency
system.l2cache.demand_avg_mshr_miss_latency::cpu.inst 64837.662338                       # average overall mshr miss latency
system.l2cache.demand_avg_mshr_miss_latency::cpu.data 66973.780262                       # average overall mshr miss latency
system.l2cache.demand_avg_mshr_miss_latency::total 66936.447410                       # average overall mshr miss latency
system.l2cache.overall_avg_mshr_miss_latency::cpu.inst 64837.662338                       # average overall mshr miss latency
system.l2cache.overall_avg_mshr_miss_latency::cpu.data 66973.780262                       # average overall mshr miss latency
system.l2cache.overall_avg_mshr_miss_latency::total 66936.447410                       # average overall mshr miss latency
system.membus.snoop_filter.tot_requests         68569                       # Total number of requests made to the snoop filter.
system.membus.snoop_filter.hit_single_requests         2483                       # Number of requests hitting in the snoop filter with a single holder of the requested data.
system.membus.snoop_filter.hit_multi_requests            0                       # Number of requests hitting in the snoop filter with multiple (>1) holders of the requested data.
system.membus.snoop_filter.tot_snoops               0                       # Total number of snoops made to the snoop filter.
system.membus.snoop_filter.hit_single_snoops            0                       # Number of snoops hitting in the snoop filter with a single holder of the requested data.
system.membus.snoop_filter.hit_multi_snoops            0                       # Number of snoops hitting in the snoop filter with multiple (>1) holders of the requested data.
system.membus.pwrStateResidencyTicks::UNDEFINED  68090142500                       # Cumulative time (in ticks) in various power states
system.membus.trans_dist::ReadResp               3083                       # Transaction distribution
system.membus.trans_dist::WritebackDirty          503                       # Transaction distribution
system.membus.trans_dist::CleanEvict             1980                       # Transaction distribution
system.membus.trans_dist::ReadExReq             63003                       # Transaction distribution
system.membus.trans_dist::ReadExResp            63003                       # Transaction distribution
system.membus.trans_dist::ReadSharedReq          3083                       # Transaction distribution
system.membus.pkt_count_system.l2cache.mem_side::system.mem_ctrl.port       134655                       # Packet count per connected master and slave (bytes)
system.membus.pkt_count_system.l2cache.mem_side::total       134655                       # Packet count per connected master and slave (bytes)
system.membus.pkt_count::total                 134655                       # Packet count per connected master and slave (bytes)
system.membus.pkt_size_system.l2cache.mem_side::system.mem_ctrl.port      4261696                       # Cumulative packet size per connected master and slave (bytes)
system.membus.pkt_size_system.l2cache.mem_side::total      4261696                       # Cumulative packet size per connected master and slave (bytes)
system.membus.pkt_size::total                 4261696                       # Cumulative packet size per connected master and slave (bytes)
system.membus.snoops                                0                       # Total snoops (count)
system.membus.snoopTraffic                          0                       # Total snoop traffic (bytes)
system.membus.snoop_fanout::samples             66086                       # Request fanout histogram
system.membus.snoop_fanout::mean                    0                       # Request fanout histogram
system.membus.snoop_fanout::stdev                   0                       # Request fanout histogram
system.membus.snoop_fanout::underflows              0      0.00%      0.00% # Request fanout histogram
system.membus.snoop_fanout::0                   66086    100.00%    100.00% # Request fanout histogram
system.membus.snoop_fanout::1                       0      0.00%    100.00% # Request fanout histogram
system.membus.snoop_fanout::overflows               0      0.00%    100.00% # Request fanout histogram
system.membus.snoop_fanout::min_value               0                       # Request fanout histogram
system.membus.snoop_fanout::max_value               0                       # Request fanout histogram
system.membus.snoop_fanout::total               66086                       # Request fanout histogram
system.membus.reqLayer2.occupancy            35290500                       # Layer occupancy (ticks)
system.membus.reqLayer2.utilization               0.1                       # Layer utilization (%)
system.membus.respLayer0.occupancy          175701230                       # Layer occupancy (ticks)
system.membus.respLayer0.utilization              0.3                       # Layer utilization (%)

---------- End Simulation Statistics   ----------
